                                                         w3iogomd.F90  page   1
 
 
    1 #include "w3macros.h"
    2 !/ ------------------------------------------------------------------- /
    3       MODULE W3IOGOMD
    4 !/
    5 !/                  +-----------------------------------+
    6 !/                  | WAVEWATCH III           NOAA/NCEP |
    7 !/                  |           H. L. Tolman            |
    8 !/                  |                        FORTRAN 90 |
    9 !/                  | Last update :         03-Nov-2020 |
   10 !/                  +-----------------------------------+
   11 !/
   12 !/    04-Jan-2001 : Origination.                        ( version 2.00 )
   13 !/    23-Apr-2002 : Clean up.                           ( version 2.19 )
   14 !/    29-Apr-2002 : Add output parameters 17-18.        ( version 2.20 )
   15 !/    30-May-2002 : Switch clean up.                    ( version 2.21 )
   16 !/    13-Nov-2002 : Add stress vector.                  ( version 3.00 )
   17 !/    25-Oct-2004 : Multiple grid version.              ( version 3.06 )
   18 !/    27-Jun-2005 : Adding MAPST2.                      ( version 3.07 )
   19 !/    21-Jul-2005 : Adding output fields 19-21.         ( version 3.07 )
   20 !/    23-Apr-2006 : Filter for directional spread.      ( version 3.09 )
   21 !/    27-Jun-2006 : Adding file name preamble.          ( version 3.09 )
   22 !/    05-Jul-2006 : Consolidate stress arrays.          ( version 3.09 )
   23 !/    02-Apr-2007 : Adding partitioned output.          ( version 3.11 )
   24 !/                  Adding user slots for outputs.
   25 !/    08-Oct-2007 : Adding ST3 source term option.      ( version 3.13 )
   26 !/                  ( F. Ardhuin )
   27 !/    05-Mar-2008 : Added NEC sxf90 compiler directives
   28 !/                  (Chris Bunney, UK Met Office)       ( version 3.13 )
   29 !/    29-May-2009 : Preparing distribution version.     ( version 3.14 )
   30 !/    13-Sep-2009 : Add coupling option                 ( version 3.14 )
   31 !/    10-Mar-2009 : Add second order pressure           ( version 3.14 )
   32 !/    15-Sep-2010 : Adding ST4 source term option.      ( version 3.14 )
   33 !/    30-Oct-2009 : Implement curvilinear grid type.    ( version 3.14 )
   34 !/                  (W. E. Rogers & T. J. Campbell, NRL)
   35 !/    05-Feb-2011 : Implement unstructured grid        ( version 3.14.3 )
   36 !/                  (A. Roland and F. Ardhuin)
   37 !/    12-Jun-2012 : Add /RTD option or rotated grid option.
   38 !/                  (Jian-Guo Li)                       ( version 4.06 )
   39 !/    25-Dec-2012 : New output structure and smaller    ( version 4.11 )
   40 !/                  memory footprint.
   41 !/    15-Apr-2013 : New subroutine to read param. names ( version 4.11 )
   42 !/    21-Aug-2013 : Bug correction in W3IOGO: UBR, ABR  ( version 4.11 )
   43 !/    11-Nov-2013 : SMC and rotated grid incorporated in the main
   44 !/                  trunk                               ( version 4.13 )
   45 !/    31-Jan-2014 : Bug fix warning output (Tolman).    ( version 4.18 )
   46 !/    10-Feb-2014 : Bug correction for US3D: div. by df ( version 4.18 )
   47 !/    30-Apr-2014 : Add th2m and sth2m calculation      ( version 5.01 )
   48 !/    27-May-2014 : Switch to OMPG switch.              ( version 5.02 )
   49 !/    27-Aug-2015 : Add ICEF,ICEH as output fields      ( version 5.10 )
   50 !/    01-Mar-2018 : Removed RTD code (now used in post  ( version 6.02 )
   51 !/                  processing code)
   52 !/    05-Jun-2018 : Add DEBUGSTP/SETUP                  ( version 6.04 )
   53 !/    22-Aug-2018 : Add WBT output parameter            ( version 6.06 )
   54 !/    25-Sep-2019 : Corrected th2m and sth2m            ( version 6.07 )
   55 !/                  calculations. (J Dykes, NRL)
 
 
                                                         w3iogomd.F90  page   2
 
 
   56 !/    04-Oct-2019 : Optional one file per output stride ( version 7.00 )
   57 !/                  (Roberto Padilla-Hernandez & J.H. Alves)
   58 !/    03-Nov-2020 : Factored out NAME matching into     ( version 7.12 )
   59 !/                  seperate subroutine. (C. Bunney)
   60 !/    15-Jan-2020 : Added TP output based on exsiting   ( version 7.12 )
   61 !/                  FP internal field. (C. Bunney)
   62 !/
   63 !/    Copyright 2009-2014 National Weather Service (NWS),
   64 !/       National Oceanic and Atmospheric Administration.  All rights
   65 !/       reserved.  WAVEWATCH III is a trademark of the NWS.
   66 !/       No unauthorized use without permission.
   67 !/
   68 !  1. Purpose :
   69 !
   70 !     Gridded output of mean wave parameters.
   71 !
   72 !  2. Variables and types :
   73 !
   74 !      Name      Type  Scope    Description
   75 !     ----------------------------------------------------------------
   76 !      VEROGR    C*10  Private  Gridded output file version number.
   77 !      IDSTR     C*30  Private  Gridded output file ID string.
   78 !     ----------------------------------------------------------------
   79 !
   80 !  3. Subroutines and functions :
   81 !
   82 !      Name      Type  Scope    Description
   83 !     ----------------------------------------------------------------
   84 !      W3OUTG    Subr. Public   Calculate mean parameters.
   85 !      W3IOGO    Subr. Public   IO to raw gridded fields file.
   86 !     ----------------------------------------------------------------
   87 !
   88 !  4. Subroutines and functions used :
   89 !
   90 !      Name      Type  Module   Description
   91 !     ----------------------------------------------------------------
   92 !      W3SETO    Subr. W3ODATMD Point to data structure.
   93 !      W3SETG    Subr. W3GDATMD Point to data structure.
   94 !      W3SETW    Subr. W3WDATMD Point to data structure.
   95 !      W3SETA    Subr. W3ADATMD Point to data structure.
   96 !      W3XETA    Subr. W3ADATMD Point to data structure.
   97 !      W3DIMW    Subr. W3WDATMD Allocate data structure.
   98 !      W3DIMA    Subr. W3ADATMD Allocate data structure.
   99 !      STRACE    Subr. W3SERVMD Subroutine tracing.           ( !/S )
  100 !      EXTCDE    Subr. W3SERVMD Program abort with exit code.
  101 !     ----------------------------------------------------------------
  102 !
  103 !  5. Remarks :
  104 !
  105 !     - The different output fields are not folded in with this module
  106 !       due to the different requirements for a element '0' in some of
  107 !       the fields.
  108 !
  109 !  6. Switches :
  110 !
 
 
                                                         w3iogomd.F90  page   3
 
 
  111 !       !/SHRD  Switch for shared / distributed memory architecture.
  112 !       !/DIST  Id.
  113 !
  114 !       !/OMPG  OpenMP compiler directive for loop splitting.
  115 !       !/C90   Cray FORTRAN 90 compiler directive.
  116 !       !/NEC   NEC SXF90 compiler directives.
  117 !
  118 !       !/O8    Filter for low wave heights ( HSMIN )
  119 !       !/O9    Negative wave height alowed, other mean parameters will
  120 !             not be correct.
  121 !
  122 !       !/ST0   No source terms.
  123 !       !/ST1   Source term set 1 (WAM equiv.)
  124 !       !/ST2   Source term set 2 (Tolman and Chalikov)
  125 !       !/ST3   Source term set 3 (WAM 4+)
  126 !       !/ST4   Source term set 4 (Ardhuin et al. 2009, 2010)
  127 !       !/ST6   Source term set 6 (BYDRZ)
  128 !       !/STX   Open source term slot (implemented as ST0).
  129 !
  130 !       !/S     Enable subroutine tracing.
  131 !       !/T     Test output.
  132 !
  133 !  7. Source code :
  134 !
  135 !/ ------------------------------------------------------------------- /
  136 !/
  137       PUBLIC
  138       CHARACTER(LEN=1024)                   :: FLDOUT
  139 !/
  140 !/ Private parameter statements (ID strings)
  141 !/
  142       CHARACTER(LEN=10), PARAMETER, PRIVATE :: VEROGR = '2019-10-04'
  143       CHARACTER(LEN=30), PARAMETER, PRIVATE ::                        &
  144                             IDSTR = 'WAVEWATCH III GRID OUTPUT FILE'
  145 !/
  146       CONTAINS
  147 !/ ------------------------------------------------------------------- /
  148       SUBROUTINE W3FLGRDUPDT ( NDSO, NDSEN, FLGRD, FLGR2, FLGD, FLG2 )
  149 !/
  150 !/                  +-----------------------------------+
  151 !/                  | WAVEWATCH III           NOAA/NCEP |
  152 !/                  |           F. Ardhuin              |
  153 !/                  |                        FORTRAN 90 |
  154 !/                  | Last update :         15-Apr-2013 |
  155 !/                  +-----------------------------------+
  156 !/
  157 !/    15-Apr-2013 : Origination.                        ( version 4.10 )
  158 !/
  159 !  1. Purpose :
  160 !
  161 !     Updates the flags for output parameters based on the mod_def file
  162 !     this is to prevent the allocation of big 3D arrays when not request>
  163 !
  164 !  3. Parameters :
  165 !
 
 
                                                         w3iogomd.F90  page   4
 
 
  166 !     Parameter list
  167 !     ----------------------------------------------------------------
  168 !       NDSO      Int.   I   Output file logical unit number
  169 !       NDSEN     R.A.   I   Error output file logical unit number
  170 !       FLGD,FLG2 L.A.   O   1D array of flags for groups
  171 !       FLGRD     L.A.   O   2D array of flags
  172 !       FLGR2     L.A.   O   2D array of flags
  173 !     ----------------------------------------------------------------
  174 !
  175 !  4. Subroutines used :
  176 !
  177 !     None
  178 !
  179 !  5. Called by :
  180 !
  181 !      Name      Type  Module   Description
  182 !     ----------------------------------------------------------------
  183 !      W3INIT    Subr.   N/A
  184 !     ----------------------------------------------------------------
  185 !
  186 !  6. Error messages :
  187 !
  188 !     None.
  189 !
  190 !  8. Structure :
  191 !
  192 !     See source code.
  193 !
  194 !  9. Switches :
  195 !
  196 !     !/S     Enable subroutine tracing.
  197 !     !/T     Test output.
  198 !
  199 ! 10. Source code :
  200 !
  201 !/ ------------------------------------------------------------------- /
  202       USE CONSTANTS
  203       USE W3GDATMD, ONLY: E3DF, P2MSF, US3DF, USSPF
  204       USE W3ODATMD, ONLY: NOGRP, NGRPP
  205 !
  206       IMPLICIT NONE
  207 !/
  208 !/ ------------------------------------------------------------------- /
  209 !/ Parameter list
  210 !/
  211       INTEGER, INTENT(IN)     :: NDSO, NDSEN
  212       LOGICAL, INTENT(INOUT)  :: FLGRD(NOGRP,NGRPP), FLGD(NOGRP),     &
  213                                  FLGR2(NOGRP,NGRPP), FLG2(NOGRP)
  214 !/
  215 !/ ------------------------------------------------------------------- /
  216 !/ Local parameters
  217 !/
  218       INTEGER             :: I
  219       CHARACTER(LEN=10)  :: VARNAME1(5),VARNAME2(5)
  220 !/
 
 
                                                         w3iogomd.F90  page   5
 
 
  221 !/ ------------------------------------------------------------------- /
  222 !/
  223 !
  224       VARNAME1(1) = 'EF';    VARNAME2(1) = 'E3D'
  225       VARNAME1(2) = 'TH1M';  VARNAME2(2) = 'TH1MF'
  226       VARNAME1(3) = 'STH1M'; VARNAME2(3) = 'STH1MF'
  227       VARNAME1(4) = 'TH2M';  VARNAME2(4) = 'TH2MF'
  228       VARNAME1(5) = 'STH2M'; VARNAME2(5) = 'STH2MF'
  229                                                    
  230       DO I=1,5
  231         IF (E3DF(1,I).LE.0.OR.E3DF(3,I).LT.E3DF(2,I)) THEN
  232           IF (FLGRD(3,I).OR.FLGR2(3,I)) THEN
  233              WRITE(NDSEN,1008) VARNAME1(I),VARNAME2(I)
  234           END IF
  235           FLGRD(3,I)=.FALSE.
  236           FLGR2(3,I)=.FALSE.
  237         END IF
  238       END DO
  239       IF (US3DF(1).LE.0.OR.US3DF(3).LT.US3DF(2)) THEN
  240         IF (FLGRD(6,8).OR.FLGR2(6,8)) THEN
  241           WRITE(NDSEN,1008) 'USF','US3D'
  242         END IF
  243         FLGRD(6,8)=.FALSE.
  244         FLGR2(6,8)=.FALSE.
  245       END IF
  246       IF (USSPF(1).LE.0.OR.USSPF(2).LE.0) THEN
  247         IF (FLGRD(6,12).OR.FLGR2(6,12)) THEN
  248           WRITE(NDSEN,1008) 'USP','USSP'
  249         END IF
  250         FLGRD(6,12)=.FALSE.
  251         FLGR2(6,12)=.FALSE.
  252       END IF
  253       IF (P2MSF(1).LE.0.OR.P2MSF(3).LT.P2MSF(2)) THEN
  254         IF (FLGRD(6,9).OR.FLGR2(6,9)) THEN
  255           WRITE(NDSEN,1008) 'P2L','P2SF'
  256         END IF
  257         FLGRD(6,9)=.FALSE.
  258         FLGR2(6,9)=.FALSE.
  259       END IF
  260 !
  261       FLGD(3) = .FALSE.
  262       FLG2(3) = .FALSE.
  263       IF(ANY(FLGRD(3,:))) FLGD(3)=.TRUE.
  264       IF(ANY(FLGR2(3,:))) FLG2(3)=.TRUE.
  265       FLGD(6) = .FALSE.
  266       FLG2(6) = .FALSE.
  267       IF(ANY(FLGRD(6,:))) FLGD(6)=.TRUE.
  268       IF(ANY(FLGR2(6,:))) FLG2(6)=.TRUE.
  269 !
  270       RETURN
  271 !
  272  1008 FORMAT (/' *** WAVEWATCH III WARNING  : '/                       &
  273                '     PARAMETER ',A,' not allowed: need to set',        &
  274                ' parameter ',A,' in OUTS namelist (in ww3_grid.inp)'   &
  275                ' with proper bounds' )
 
 
                                                         w3iogomd.F90  page   6
 
 
  276 !
  277       END SUBROUTINE W3FLGRDUPDT
  278 !/ ------------------------------------------------------------------- /
  279       SUBROUTINE W3READFLGRD ( NDSI , NDSO, NDSS, NDSEN, COMSTR,      &
  280                                FLG1D, FLG2D, IAPROC, NAPOUT, IERR)
  281 !/
  282 !/                  +-----------------------------------+
  283 !/                  | WAVEWATCH III           NOAA/NCEP |
  284 !/                  |           F. Ardhuin              |
  285 !/                  |                        FORTRAN 90 |
  286 !/                  | Last update :         25-Sep-2020 |
  287 !/                  +-----------------------------------+
  288 !/
  289 !/    15-Apr-2013 : Origination.                        ( version 4.10 )
  290 !/    31-Jan-2014 : Bug fix warning output (Tolman).    ( version 4.18 )
  291 !/    30-Apr-2014 : Add th2m and sth2m calculation      ( version 5.01 )
  292 !/    25-Sep-2020 : Calculate FLG1D for any processor   ( version 7.10 )
  293 !/    03-Nov-2020 : Factored out NAME matching into     ( version 7.12 )
  294 !/                  seperate subroutine (C. Bunney)
  295 !/
  296 !  1. Purpose :
  297 !
  298 !     Fills in FLG1D and FLG2D arrays from ASCII input file
  299 !
  300 !  3. Parameters :
  301 !
  302 !     Parameter list
  303 !     ----------------------------------------------------------------
  304 !       NDSI    Int.   I   Input file logical unit number
  305 !       NDSO    Int.   I   Output file logical unit number
  306 !       NDSS    Int.   I   Screen file logical unit number
  307 !       NDSEN   R.A.   I   Error output file logical unit number
  308 !       COMSTR  Char   I   Comment string, usually '$'
  309 !       FLG1D   L.A.   O   1D array of flags for groups
  310 !       FLG2D   L.A.   O   2D array of flags
  311 !       IAPROC  Int.   I   index of current processor
  312 !       NAPOUT  Int.   I   index of processor for output (screen)
  313 !       IERR    Int.   O   Error message number
  314 !     ----------------------------------------------------------------
  315 !
  316 !  4. Subroutines used :
  317 !
  318 !     None
  319 !
  320 !  5. Called by :
  321 !
  322 !      Name      Type  Module   Description
  323 !     ----------------------------------------------------------------
  324 !      WW3_SHEL  Prog.   N/A    Actual wave model program
  325 !      WW3_OUTF  Prog.   N/A    Output postprocessor.
  326 !      WW3_OUNF  Prog.   N/A    NetCDF output postprocessor.
  327 !     ----------------------------------------------------------------
  328 !
  329 !  6. Error messages :
  330 !
 
 
                                                         w3iogomd.F90  page   7
 
 
  331 !     None.
  332 !
  333 !  8. Structure :
  334 !
  335 !     See source code.
  336 !
  337 !  9. Switches :
  338 !
  339 !     !/S     Enable subroutine tracing.
  340 !     !/T     Test output.
  341 !
  342 ! 10. Source code :
  343 !
  344 !/ ------------------------------------------------------------------- /
  345       USE CONSTANTS
  346       USE W3GDATMD, ONLY: US3DF, USSPF
  347       USE W3ODATMD, ONLY: NOGRP, NGRPP, NOGE, IDOUT
  348       USE W3SERVMD, ONLY: NEXTLN, STRSPLIT, STR_TO_UPPER
  349 !
  350       IMPLICIT NONE
  351 !/
  352 !/ ------------------------------------------------------------------- /
  353 !/ Parameter list
  354 !/
  355       INTEGER, INTENT(IN)     :: NDSI, NDSO, NDSS, NDSEN, IAPROC, NAPOUT
  356       INTEGER, INTENT(OUT)    :: IERR
  357       CHARACTER(LEN=1)        :: COMSTR
  358       LOGICAL, INTENT(OUT)    :: FLG2D(NOGRP,NGRPP), FLG1D(NOGRP)
  359       CHARACTER(LEN=100)      :: OUT_NAMES(100), TESTSTR
  360 !/
  361 !/ ------------------------------------------------------------------- /
  362 !/ Local parameters
  363 !/
  364       INTEGER             :: IFI, IFJ, IOUT
  365       CHARACTER(LEN=1)    :: AFLG
  366       LOGICAL             :: FLT, NAMES
  367 !/
  368 !/ ------------------------------------------------------------------- /
  369 !/
  370 !
  371 ! 1.  Initialize flags -------------------------------------- *
  372 !
  373       IERR=0
  374       FLG2D(:,:)=.FALSE. ! Initialize FLG2D
  375       FLG1D(:)=.FALSE. ! Initialize FLOG
  376       NAMES =.FALSE.
  377 !
  378       DO IFI=1,NOGRP ! Loop over field output groups
  379 !
  380         CALL NEXTLN ( COMSTR , NDSI , NDSEN )
  381         READ (NDSI,*,END=2001,ERR=2002) AFLG
  382         IF (AFLG.EQ.'T') THEN
  383           FLG1D(IFI)=.TRUE.
  384         ELSE IF (AFLG.EQ.'F') THEN
  385           FLG1D(IFI)=.FALSE.
 
 
                                                         w3iogomd.F90  page   8
 
 
  386         ELSE IF (AFLG.EQ.'N') THEN
  387           NAMES=.TRUE.
  388           EXIT
  389         ELSE
  390           IERR=1
  391           GOTO 2005
  392           END IF
  393         IF ( FLG1D (IFI) ) THEN ! Skip if group not requested
  394           CALL NEXTLN ( COMSTR , NDSI , NDSEN )
  395           READ (NDSI,'(A)',END=2001,ERR=2006,IOSTAT=IERR)              &
  396                                                        FLDOUT
  397           OUT_NAMES(:)=''
  398           CALL STRSPLIT(FLDOUT,OUT_NAMES)
  399           IFJ=0
  400           DO WHILE (len_trim(OUT_NAMES(IFJ+1)).NE.0)
  401              IFJ=IFJ+1
  402              IF ( OUT_NAMES(IFJ) .EQ. 'T' )                            &
  403                                FLG2D(IFI,IFJ)=.TRUE.
  404           ENDDO
  405           IF ( IAPROC .EQ. NAPOUT .AND. IFJ .LT. NOGE(IFI) ) WRITE(NDSEN,>
  406          ENDIF
  407         END DO
  408 !
  409       IF (NAMES) THEN
  410 !
  411 ! 2. Reads and splits list of output field names
  412 !
  413         CALL NEXTLN ( COMSTR , NDSI , NDSEN )
  414         READ (NDSI,'(A)',END=2001,ERR=2003,IOSTAT=IERR) FLDOUT
  415         OUT_NAMES(:)=''
  416         CALL STRSPLIT(FLDOUT,OUT_NAMES)
  417         IOUT=0
  418         DO WHILE (len_trim(OUT_NAMES(IOUT+1)).NE.0)
  419           CALL STR_TO_UPPER(OUT_NAMES(IOUT+1))
  420 !
  421 ! 2. Matches names with expected ...
  422 !
  423           TESTSTR=OUT_NAMES(IOUT+1)
  424           CALL W3FLDTOIJ(TESTSTR, IFI, IFJ, IAPROC, NAPOUT, NDSEN)
  425                                                                   
  426           IF(IFI .NE. -1) THEN
  427             FLG2D(IFI, IFJ) = .TRUE.
  428           ENDIF
  429 !
  430           IOUT=IOUT+1
  431 !
  432         END DO
  433 !
  434       END IF
  435 !
  436       FLT    = .TRUE.
  437       DO IFI=1, NOGRP
  438         IF ( IAPROC .EQ. NAPOUT ) THEN
  439           DO IFJ=1, NGRPP
  440             IF ( FLG2D(IFI,IFJ) ) THEN
 
 
                                                         w3iogomd.F90  page   9
 
 
  441               IF ( FLT ) THEN
  442                 WRITE (NDSO,1945) IDOUT(IFI,IFJ)
  443                 FLT    = .FALSE.
  444               ELSE
  445                 WRITE (NDSO,1946) IDOUT(IFI,IFJ)
  446               END IF
  447             END IF
  448           END DO
  449         END IF
  450         IF(ANY(FLG2D(IFI,:))) FLG1D(IFI)=.TRUE. !Update FLG1D
  451       END DO
  452       IF ( IAPROC .EQ. NAPOUT ) THEN
  453         IF ( FLT ) WRITE (NDSO,1945) 'no fields defined'
  454       END IF
  455 !
  456       RETURN
  457 !
  458  2001 CONTINUE
  459       IF ( IAPROC .EQ. NAPOUT ) WRITE (NDSEN,1001)
  460       RETURN
  461  2002 CONTINUE
  462       IF ( IAPROC .EQ. NAPOUT ) WRITE (NDSEN, 1002) IFI, IERR
  463       RETURN
  464  2003 CONTINUE
  465       IF ( IAPROC .EQ. NAPOUT ) WRITE (NDSEN, 1003) IERR
  466       RETURN
  467 !2004 CONTINUE ! replaced by warning in code ....
  468  2005 CONTINUE
  469       IF ( IAPROC .EQ. NAPOUT ) WRITE (NDSEN, 1005) AFLG
  470       RETURN
  471  2006 CONTINUE
  472       IF ( IAPROC .EQ. NAPOUT ) WRITE (NDSEN, 1006) IFI,IERR
  473       RETURN
  474 !
  475  1945 FORMAT ( '            Fields   : ',A)
  476  1946 FORMAT ( '                       ',A)
  477 !
  478  1001 FORMAT (/' *** WAVEWATCH III ERROR  : '/                         &
  479                '     PREMATURE END OF INPUT FILE'/)
  480 !
  481  1002 FORMAT (/' *** WAVEWATCH III ERROR  : '/                         &
  482                '     ERROR IN READING OUTPUT FIELDS GROUP FLAGS ',     &
  483                I2, /, '     IOSTAT =',I5/)
  484 !
  485  1003 FORMAT (/' *** WAVEWATCH III ERROR  : '/                         &
  486                '     ERROR READING OUTPUT FIELD NAMES FROM INPUT FILE'/&
  487                '     IOSTAT =',I5/)
  488 !
  489  1005 FORMAT (/' *** WAVEWATCH III ERROR    : '/                       &
  490                '     WAS EXPECTING "T" "F" or "N", but found "',A,'".'/)
  491 !
  492  1006 FORMAT (/' *** WAVEWATCH III ERROR  : '/                         &
  493                '     ERROR IN READING OUTPUT FIELDS FLAGS FOR GROUP ', &
  494                I2, /, '     IOSTAT =',I5/)
  495 !
 
 
                                                         w3iogomd.F90  page  10
 
 
  496  1007 FORMAT (/' *** WAVEWATCH III WARNING  : '/                       &
  497                '     NUMBER OF REQUESTED OUTPUT FIELD FLAGS IN GROUP ',&
  498               I2, /,' LESS THAN AVAILABLE, CHECK DOCS FOR MORE OPTIONS')
  499 !
  500       END SUBROUTINE W3READFLGRD
  501                                 
  502 !/ ------------------------------------------------------------------- /
  503       SUBROUTINE W3FLGRDFLAG ( NDSO, NDSS, NDSEN, FLDOUT,      &
  504                                FLG1D, FLG2D, IAPROC, NAPOUT, IERR)
  505 !/
  506 !/                  +-----------------------------------+
  507 !/                  | WAVEWATCH III           NOAA/NCEP |
  508 !/                  |           F. Ardhuin              |
  509 !/                  |                        FORTRAN 90 |
  510 !/                  | Last update :         25-Sep-2020 |
  511 !/                  +-----------------------------------+
  512 !/
  513 !/    15-Apr-2013 : Origination.                        ( version 4.10 )
  514 !/    31-Jan-2014 : Bug fix warning output (Tolman).    ( version 4.18 )
  515 !/    30-Apr-2014 : Add th2m and sth2m calculation      ( version 5.01 )
  516 !/    17-Feb-2016 : New version for namelist use        ( version 5.11 )
  517 !/    25-Sep-2020 : Calculate FLG1D for any processor   ( version 7.10 )
  518 !/    03-Nov-2020 : Factored out NAME matching into     ( version 7.12 )
  519 !/                  seperate subroutine (C. Bunney)
  520 !/
  521 !  1. Purpose :
  522 !
  523 !     Fills in FLG1D and FLG2D arrays from ASCII input file
  524 !
  525 !  3. Parameters :
  526 !
  527 !     Parameter list
  528 !     ----------------------------------------------------------------
  529 !       NDSO    Int.   I   Output file logical unit number
  530 !       NDSS    Int.   I   Screen file logical unit number
  531 !       NDSEN   R.A.   I   Error output file logical unit number
  532 !       FLDOUT  Cha.   I   List of field names
  533 !       FLG1D   L.A.   O   1D array of flags for groups
  534 !       FLG2D   L.A.   O   2D array of flags
  535 !       IAPROC  Int.   I   index of current processor
  536 !       NAPOUT  Int.   I   index of processor for output (screen)
  537 !       IERR    Int.   O   Error message number
  538 !     ----------------------------------------------------------------
  539 !
  540 !  4. Subroutines used :
  541 !
  542 !     None
  543 !
  544 !  5. Called by :
  545 !
  546 !      Name      Type  Module   Description
  547 !     ----------------------------------------------------------------
  548 !      WW3_SHEL  Prog.   N/A    Actual wave model program
  549 !      WW3_OUTF  Prog.   N/A    Output postprocessor.
  550 !      WW3_OUNF  Prog.   N/A    NetCDF output postprocessor.
 
 
                                                         w3iogomd.F90  page  11
 
 
  551 !     ----------------------------------------------------------------
  552 !
  553 !  6. Error messages :
  554 !
  555 !     None.
  556 !
  557 !  8. Structure :
  558 !
  559 !     See source code.
  560 !
  561 !  9. Switches :
  562 !
  563 !     !/S     Enable subroutine tracing.
  564 !     !/T     Test output.
  565 !
  566 ! 10. Source code :
  567 !
  568 !/ ------------------------------------------------------------------- /
  569       USE CONSTANTS
  570       USE W3ODATMD, ONLY: NOGRP, NGRPP, IDOUT
  571       USE W3SERVMD, ONLY: STRSPLIT, STR_TO_UPPER
  572       USE W3GDATMD, ONLY: US3DF, USSPF
  573 !
  574       IMPLICIT NONE
  575 !/
  576 !/ ------------------------------------------------------------------- /
  577 !/ Parameter list
  578 !/
  579       INTEGER, INTENT(IN)     :: NDSO, NDSS, NDSEN, IAPROC, NAPOUT
  580       CHARACTER(1024), INTENT(IN)   :: FLDOUT
  581       INTEGER, INTENT(OUT)    :: IERR
  582       LOGICAL, INTENT(OUT)    :: FLG2D(NOGRP,NGRPP), FLG1D(NOGRP)
  583       CHARACTER(LEN=100)      :: OUT_NAMES(100), TESTSTR
  584 !/
  585 !/ ------------------------------------------------------------------- /
  586 !/ Local parameters
  587 !/
  588       INTEGER             :: I, IFI, IFJ, IOUT
  589       LOGICAL             :: FLT
  590 !/
  591 !/ ------------------------------------------------------------------- /
  592 !/
  593 !
  594 ! 1.  Initialize flags -------------------------------------- *
  595 !
  596       IERR=0
  597       FLG2D(:,:)=.FALSE. ! Initialize FLG2D
  598       FLG1D(:)=.FALSE. ! Initialize FLOG
  599 !
  600 ! 2. Splits list of output field names
  601 !
  602       OUT_NAMES(:)=''
  603       CALL STRSPLIT(FLDOUT,OUT_NAMES)
  604       IOUT=0
  605       DO WHILE (len_trim(OUT_NAMES(IOUT+1)).NE.0)
 
 
                                                         w3iogomd.F90  page  12
 
 
  606         CALL STR_TO_UPPER(OUT_NAMES(IOUT+1))
  607 !
  608 ! 2. Matches names with expected ...
  609 !
  610         TESTSTR=OUT_NAMES(IOUT+1)
  611         CALL W3FLDTOIJ(TESTSTR, IFI, IFJ, IAPROC, NAPOUT, NDSEN)
  612                                                                 
  613         IF(IFI .NE. -1) THEN
  614           FLG2D(IFI, IFJ) = .TRUE.
  615         ENDIF
  616 !
  617         IOUT=IOUT+1
  618 !
  619       END DO
  620 !
  621       FLT    = .TRUE.
  622       DO IFI=1, NOGRP
  623         IF ( IAPROC .EQ. NAPOUT ) THEN
  624           DO IFJ=1, NGRPP
  625             IF ( FLG2D(IFI,IFJ) ) THEN
  626               IF ( FLT ) THEN
  627                 WRITE (NDSO,1945) IDOUT(IFI,IFJ)
  628                 FLT    = .FALSE.
  629               ELSE
  630                 WRITE (NDSO,1946) IDOUT(IFI,IFJ)
  631               END IF
  632             END IF
  633           END DO
  634         ENDIF
  635         IF(ANY(FLG2D(IFI,:))) FLG1D(IFI)=.TRUE. !Update FLG1D
  636       END DO
  637       IF ( IAPROC .EQ. NAPOUT ) THEN
  638         IF ( FLT ) WRITE (NDSO,1945) 'no fields defined'
  639       ENDIF
  640 !
  641       RETURN
  642 !
  643  1945 FORMAT ( '            Fields   : ',A)
  644  1946 FORMAT ( '                       ',A)
  645 !
  646 ! 1004 FORMAT (/' *** WAVEWATCH III WARNING  : '/                       &
  647 !               '     REQUESTED OUTPUT FIELD ',A,' WAS NOT RECOGNIZED.'/)
  648 !!
  649 ! 1008 FORMAT (/' *** WAVEWATCH III WARNING  : '/                       &
  650 !               '     PARAMETER ',A,' not allowed: need to set',        &
  651 !               ' parameter ',A,' in OUTS namelist (in ww3_grid.inp)')
  652 !
  653       END SUBROUTINE W3FLGRDFLAG
  654                                 
  655 !/ ------------------------------------------------------------------- /
  656       SUBROUTINE W3FLDTOIJ(FLD, I, J, IAPROC, NAPOUT, NDSEN)
  657 !/
  658 !/                  +-----------------------------------+
  659 !/                  | WAVEWATCH III           NOAA/NCEP |
  660 !/                  |            C. Bunney              |
 
 
                                                         w3iogomd.F90  page  13
 
 
  661 !/                  |                        FORTRAN 90 |
  662 !/                  | Last update :         03-Nov-2020 |
  663 !/                  +-----------------------------------+
  664 !/
  665 !/    03-Nov-2020 : Origination.                        ( version 7.12 )
  666 !
  667 !  1. Purpose :
  668 !
  669 !     Returns the group/field (I/J) indices for a named output field.
  670 !
  671 !  3. Parameters :
  672 !
  673 !     Parameter list
  674 !     ----------------------------------------------------------------
  675 !       FLD     Cha.   I   Field names
  676 !       I       Int.   O   Output group number (IFI)
  677 !       J       Int.   O   Output field number (IFJ)
  678 !       IAPROC  Int.   I   index of current processor
  679 !       NAPOUT  Int.   I   index of processor for output (screen)
  680 !       NDSEN   R.A.   I   Error output file logical unit number
  681 !     ----------------------------------------------------------------
  682 !
  683 !/ ------------------------------------------------------------------- /
  684       USE W3GDATMD, ONLY: US3DF, USSPF
  685       IMPLICIT NONE
  686 !/
  687 !/ ------------------------------------------------------------------- /
  688 !/ Local parameters
  689 !/
  690       CHARACTER(LEN=*), INTENT(IN) :: FLD
  691       INTEGER, INTENT(IN) :: IAPROC, NAPOUT, NDSEN
  692       INTEGER, INTENT(OUT) :: I, J
  693                                   
  694       I = -1
  695       J = -1
  696             
  697       SELECT CASE(TRIM(FLD(1:6)))
  698 !
  699 ! Group 1
  700 !
  701       CASE('DPT')
  702         I = 1
  703         J = 1
  704       CASE('CUR')
  705         I = 1
  706         J = 2
  707       CASE('WND')
  708         I = 1
  709         J = 3
  710       CASE('AST')
  711         I = 1
  712         J = 4
  713       CASE('WLV')
  714         I = 1
  715         J = 5
 
 
                                                         w3iogomd.F90  page  14
 
 
  716       CASE('ICE')
  717         I = 1
  718         J = 6
  719       CASE('IBG')
  720         I = 1
  721         J = 7
  722 ! Group 2
  723 !
  724       CASE('HS')
  725         I = 2
  726         J = 1
  727       CASE('LM')
  728         I = 2
  729         J = 2
  730       CASE('T02')
  731         I = 2
  732         J = 3
  733       CASE('T0M1')
  734         I = 2
  735         J = 4
  736       CASE('T01')
  737         I = 2
  738         J = 5
  739       CASE('FP')
  740         I = 2
  741         J = 6
  742       CASE('DIR')
  743         I = 2
  744         J = 7
  745       CASE('SPR')
  746         I = 2
  747         J = 8
  748       CASE('DP')
  749         I = 2
  750         J = 9
  751       CASE('HIG')
  752         I = 2
  753         J = 10
  754       CASE('MXE')
  755         I = 2
  756         J = 11
  757       CASE('MXES')
  758         I = 2
  759         J = 12
  760       CASE('MXH')
  761         I = 2
  762         J = 13
  763       CASE('MXHC')
  764         I = 2
  765         J = 14
  766       CASE('SDMH')
  767         I = 2
  768         J = 15
  769       CASE('SDMHC')
  770         I = 2
 
 
                                                         w3iogomd.F90  page  15
 
 
  771         J = 16
  772       CASE('WBT')
  773         I = 2
  774         J = 17
  775       CASE('TP') ! Uses FP0 internally, as per FP
  776         I = 2
  777         J = 18
  778 !
  779 ! Group 3
  780 !
  781       CASE('EF')
  782         I = 3
  783         J = 1
  784       CASE('TH1M')
  785         I = 3
  786         J = 2
  787       CASE('STH1M')
  788         I = 3
  789         J = 3
  790       CASE('TH2M')
  791         I = 3
  792         J = 4
  793       CASE('STH2M')
  794         I = 3
  795         J = 5
  796       CASE('WN')
  797         I = 3
  798         J = 6
  799 !
  800 ! Group 4
  801 !
  802       CASE('PHS')
  803         I = 4
  804         J = 1
  805       CASE('PTP')
  806         I = 4
  807         J = 2
  808       CASE('PLP')
  809         I = 4
  810         J = 3
  811       CASE('PDIR')
  812         I = 4
  813         J = 4
  814       CASE('PSPR')
  815         I = 4
  816         J = 5
  817       CASE('PWS')
  818         I = 4
  819         J = 6
  820       CASE('PDP')
  821         I = 4
  822         J = 7
  823       CASE('PQP')
  824         I = 4
  825         J = 8
 
 
                                                         w3iogomd.F90  page  16
 
 
  826       CASE('PPE')
  827         I = 4
  828         J = 9
  829       CASE('PGW')
  830         I = 4
  831         J = 10
  832       CASE('PSW')
  833         I = 4
  834         J = 11
  835       CASE('PTM10')
  836         I = 4
  837         J = 12
  838       CASE('PT01')
  839         I = 4
  840         J = 13
  841       CASE('PT02')
  842         I = 4
  843         J = 14
  844       CASE('PEP')
  845         I = 4
  846         J = 15
  847       CASE('TWS')
  848         I = 4
  849         J = 16
  850       CASE('PNR')
  851         I = 4
  852         J = 17
  853 !
  854 ! Group 5
  855 !
  856       CASE('UST')
  857         I = 5
  858         J = 1
  859       CASE('CHA')
  860         I = 5
  861         J = 2
  862       CASE('CGE')
  863         I = 5
  864         J = 3
  865       CASE('FAW')
  866         I = 5
  867         J = 4
  868       CASE('TAW')
  869         I = 5
  870         J = 5
  871       CASE('TWA')
  872         I = 5
  873         J = 6
  874       CASE('WCC')
  875         I = 5
  876         J = 7
  877       CASE('WCF')
  878         I = 5
  879         J = 8
  880       CASE('WCH')
 
 
                                                         w3iogomd.F90  page  17
 
 
  881         I = 5
  882         J = 9
  883       CASE('WCM')
  884         I = 5
  885         J = 10
  886       CASE('FWS')
  887         I = 5
  888         J = 11
  889 !
  890 ! Group 6
  891 !
  892       CASE('SXY')
  893         I = 6
  894         J = 1
  895       CASE('TWO')
  896         I = 6
  897         J = 2
  898       CASE('BHD')
  899         I = 6
  900         J = 3
  901       CASE('FOC')
  902         I = 6
  903         J = 4
  904       CASE('TUS')
  905         I = 6
  906         J = 5
  907       CASE('USS')
  908         I = 6
  909         J = 6
  910       CASE('P2S')
  911         I = 6
  912         J = 7
  913       CASE('USF')
  914         IF (US3DF(1).GE.1) THEN
  915           I = 6
  916           J = 8
  917         ELSE
  918           IF ( IAPROC .EQ. NAPOUT ) WRITE(NDSEN,1008) 'USF','US3D'
  919         END IF
  920       CASE('P2L')
  921         I = 6
  922         J = 9
  923       CASE('TWI')
  924         I = 6
  925         J = 10
  926       CASE('FIC')
  927         I = 6
  928         J = 11
  929       CASE('USP')
  930         IF (USSPF(1).GE.1) THEN
  931           I = 6
  932           J = 12
  933         ELSE
  934           IF ( IAPROC .EQ. NAPOUT ) WRITE(NDSEN,1008) 'USP','USSP'
  935         END IF
 
 
                                                         w3iogomd.F90  page  18
 
 
  936               
  937 !
  938 ! Group 7
  939 !
  940       CASE('ABR')
  941         I = 7
  942         J = 1
  943       CASE('UBR')
  944         I = 7
  945         J = 2
  946       CASE('BED')
  947         I = 7
  948         J = 3
  949       CASE('FBB')
  950         I = 7
  951         J = 4
  952       CASE('TBB')
  953         I = 7
  954         J = 5
  955 !
  956 ! Group 8
  957 !
  958       CASE('MSS')
  959         I = 8
  960         J = 1
  961       CASE('MSC')
  962         I = 8
  963         J = 2
  964       CASE('MSD')
  965         I = 8
  966         J = 3
  967       CASE('MCD')
  968         I = 8
  969         J = 4
  970       CASE('QP')
  971         I = 8
  972         J = 5
  973 !
  974 ! Group 9
  975 !
  976       CASE('DTD')
  977         I = 9
  978         J = 1
  979       CASE('FC')
  980         I = 9
  981         J = 2
  982       CASE('CFX')
  983         I = 9
  984         J = 3
  985       CASE('CFD')
  986         I = 9
  987         J = 4
  988       CASE('CFK')
  989         I = 9
  990         J = 5
 
 
                                                         w3iogomd.F90  page  19
 
 
  991 !
  992 ! Group 10
  993 !
  994       CASE('U1')
  995         I = 10
  996         J = 1
  997       CASE('U2')
  998         I = 10
  999         J = 1
 1000 ! Not found:
 1001       CASE('UNSET')
 1002       CASE DEFAULT
 1003         I = -1
 1004         J = -1
 1005         IF ( IAPROC .EQ. NAPOUT ) WRITE (NDSEN,1004) TRIM(FLD)
 1006       END SELECT
 1007                 
 1008  1004 FORMAT (/' *** WAVEWATCH III WARNING  : '/                       &
 1009                '     REQUESTED OUTPUT FIELD ',A,' WAS NOT RECOGNIZED.'/)
 1010 !
 1011  1008 FORMAT (/' *** WAVEWATCH III WARNING  : '/                       &
 1012                '     PARAMETER ',A,' not allowed: need to set',        &
 1013                ' parameter ',A,' in OUTS namelist (in ww3_grid.inp)')
 1014 !
 1015       END SUBROUTINE W3FLDTOIJ
 1016                               
 1017 !/ ------------------------------------------------------------------- /
 1018       SUBROUTINE W3OUTG ( A, FLPART, FLOUTG, FLOUTG2 )
 1019 !/
 1020 !/                  +-----------------------------------+
 1021 !/                  | WAVEWATCH III           NOAA/NCEP |
 1022 !/                  |           H. L. Tolman            |
 1023 !/                  |                        FORTRAN 90 |
 1024 !/                  | Last update :         10-Apr-2015 |
 1025 !/                  +-----------------------------------+
 1026 !/
 1027 !/    10-Dec-1998 : Distributed FORTRAN 77 version.     ( version 1.18 )
 1028 !/    04-Jan-2000 : Upgrade to FORTRAN 90               ( version 2.00 )
 1029 !/                  Major changes to logistics.
 1030 !/    09-May-2002 : Switch clean up.                    ( version 2.21 )
 1031 !/    19-Oct-2004 : Multiple grid version.              ( version 3.06 )
 1032 !/    21-Jul-2005 : Adding output fields 19-21.         ( version 3.07 )
 1033 !/    23-Apr-2006 : Filter for directional spread.      ( version 3.09 )
 1034 !/    02-Apr-2007 : Adding partitioned output.          ( version 3.11 )
 1035 !/                  Adding user slots for outputs.
 1036 !/    08-Oct-2007 : Adding ST3 source term option.      ( version 3.13 )
 1037 !/                  ( F. Ardhuin )
 1038 !/    05-Mar-2008 : Added NEC sxf90 compiler directives
 1039 !/                  (Chris Bunney, UK Met Office)       ( version 3.13 )
 1040 !/    25-Dec-2012 : New output structure and smaller    ( version 4.11 )
 1041 !/                  memory footprint.
 1042 !/    10-Feb-2014 : Bug correction for US3D: div. by df ( version 4.18 )
 1043 !/    30-Apr-2014 : Add th2m and sth2m calculation      ( version 5.01 )
 1044 !/    27-May-2014 : Switch to OMPG switch.              ( version 5.02 )
 1045 !/    10-Apr-2015 : Remove unused variables             ( version 5.08 )
 
 
                                                         w3iogomd.F90  page  20
 
 
 1046 !/    10-Jan-2017 : Separate Stokes drift calculation   ( version 6.01 )
 1047 !/    01-Mar-2018 : Removed RTD code (now used in post  ( version 6.02 )
 1048 !/                  processing code)
 1049 !/    22-Aug-2018 : Add WBT parameter                   ( version 6.06 )
 1050 !/    25-Sep-2019 : Corrected th2m and sth2m            ( version 6.07 )
 1051 !/                  calculations. (J Dykes, NRL)
 1052 !/
 1053 !  1. Purpose :
 1054 !
 1055 !     Fill necessary arrays with gridded data for output.
 1056 !
 1057 !  3. Parameters :
 1058 !
 1059 !     Parameter list
 1060 !     ----------------------------------------------------------------
 1061 !       A       R.A.   I   Input spectra. Left in par list to change
 1062 !                          shape.
 1063 !       FLPART  Log.   I   Flag for filling fields with part. data.
 1064 !       FLOUTG  Log.   I   Flag for file field output
 1065 !       FLOUTG2 Log.   I   Flag for coupling field output
 1066 !     ----------------------------------------------------------------
 1067 !
 1068 !     Locally saved parameters
 1069 !     ----------------------------------------------------------------
 1070 !       HSMIN   Real  Filter level in Hs for calculation of mean
 1071 !                     wave parameters.
 1072 !     ----------------------------------------------------------------
 1073 !
 1074 !  4. Subroutines used :
 1075 !
 1076 !     See module documentation.
 1077 !
 1078 !  5. Called by :
 1079 !
 1080 !      Name      Type  Module   Description
 1081 !     ----------------------------------------------------------------
 1082 !      W3WAVE    Subr. W3WAVEMD Actual wave model routine.
 1083 !     ----------------------------------------------------------------
 1084 !
 1085 !  6. Error messages :
 1086 !
 1087 !     None.
 1088 !
 1089 !  8. Structure :
 1090 !
 1091 !     See source code.
 1092 !
 1093 !  9. Switches :
 1094 !
 1095 !     !/SHRD  Switch for shared / distributed memory architecture.
 1096 !     !/DIST  Id.
 1097 !
 1098 !     !/C90   Cray FORTRAN 90 compiler directives.
 1099 !     !/NEC   NEC SXF90 compiler directives.
 1100 !     !/OMPG  OpenMP compiler directive for loop splitting.
 
 
                                                         w3iogomd.F90  page  21
 
 
 1101 !
 1102 !     !/O8    Filter for low wave heights ( HSMIN )
 1103 !     !/O9    Negative wave height alowed, other mean parameters will
 1104 !             not be correct.
 1105 !
 1106 !     !/ST0   No source terms.
 1107 !     !/ST1   Source term set 1 (WAM equiv.)
 1108 !     !/ST2   Source term set 2 (Tolman and Chalikov)
 1109 !     !/ST3   Source term set 3 (WAM 4+)
 1110 !     !/ST6   Source term set 6 (BYDRZ)
 1111 !     !/STX   Open source term slot (implemented as ST0).
 1112 !
 1113 !     !/S     Enable subroutine tracing.
 1114 !     !/T     Test output.
 1115 !
 1116 ! 10. Source code :
 1117 !
 1118 !/ ------------------------------------------------------------------- /
 1119       USE CONSTANTS
 1120       USE W3GDATMD
 1121       USE W3WDATMD, ONLY: UST, FPIS
 1122       USE W3ADATMD, ONLY: CG, WN, DW
 1123       USE W3ADATMD, ONLY: HS, WLM, T02, T0M1, T01, FP0,               &
 1124                           THM, THS, THP0
 1125       USE W3ADATMD, ONLY: FP1, THP1, ABA, ABD, UBA, UBD, FCUT, SXX,   &
 1126                           SYY, SXY, PHS, PTP, PLP, PDIR, PSI, PWS,    &
 1127                           PWST, PNR, USERO, TUSX, TUSY, PRMS, TPMS,   &
 1128                           USSX, USSY, MSSX, MSSY, MSSD, MSCX, MSCY,   &
 1129                           MSCD, CHARN,                                &
 1130                           BHD, CGE, P2SMS, US3D, EF, TH1M, STH1M,     &
 1131                           TH2M, STH2M, HSIG, STMAXE, STMAXD,          &
 1132                           HCMAXE, HMAXE, HCMAXD, HMAXD, USSP, QP, PQP,&
 1133                           PTHP0, PPE, PGW, PSW, PTM1, PT1, PT2, PEP,  &
 1134                           WBT
 1135       USE W3ODATMD, ONLY: NDST, UNDEF, IAPROC, NAPROC, NAPFLD,        &
 1136                           ICPRT, DTPRT, WSCUT, NOSWLL, FLOGRD, FLOGR2,&
 1137                           NOGRP, NGRPP
 1138       USE W3ADATMD, ONLY: NSEALM
 1139 !
 1140       USE W3PARALL, ONLY : INIT_GET_ISEA
 1141       IMPLICIT NONE
 1142 !/
 1143 !/ ------------------------------------------------------------------- /
 1144 !/ Parameter list
 1145 !/
 1146       REAL, INTENT(IN)        :: A(NTH,NK,0:NSEAL)
 1147       LOGICAL, INTENT(IN)     :: FLPART, FLOUTG, FLOUTG2
 1148 !/
 1149 !/ ------------------------------------------------------------------- /
 1150 !/ Local parameters
 1151 !/
 1152       INTEGER                 :: IK, ITH, JSEA, ISEA, IX, IY,         &
 1153                                  IKP0(NSEAL), IKP1(NSEAL), NKH(NSEAL),&
 1154                                  ILOW, ICEN, IHGH, I, J, LKMS, HKMS,  &
 1155                                  ITL
 
 
                                                         w3iogomd.F90  page  22
 
 
 1156       REAL                    :: FXPMC, FACTOR, FACTOR2, EBAND, FKD,  &
 1157                                  FP1STR, FP1TST, FPISTR, AABS, UABS,  &
 1158                                  XL, XH, XL2, XH2, EL, EH, DENOM, KD, &
 1159                                  M1, M2, MA, MB, MC, STEX, STEY, STED
 1160       REAL                    :: ET(NSEAL), EWN(NSEAL), ETR(NSEAL),   &
 1161                                  ETX(NSEAL), ETY(NSEAL), AB(NSEAL),   &
 1162                                  ETXX(NSEAL), ETYY(NSEAL), ETXY(NSEAL),&
 1163                                  ABX(NSEAL), ABY(NSEAL),ET02(NSEAL),  &
 1164                                  EBD(NK,NSEAL), EC(NSEAL),            &
 1165                                  ABR(NSEAL), UBR(NSEAL), UBS(NSEAL),  &
 1166                                  ABX2(NSEAL), ABY2(NSEAL),            &
 1167                                  AB2X(NSEAL), AB2Y(NSEAL),            &
 1168                                  ABST(NSEAL), ABXX(NSEAL),            &
 1169                                  ABYY(NSEAL), ABXY(NSEAL),            &
 1170                                  ABYX(NSEAL), EET1(NSEAL),            &
 1171                                  ETUSCX(NSEAL), ETUSCY(NSEAL),        &
 1172                                  ETMSSL(NSEAL), ETMSSCL(NSEAL),       &
 1173                                  ETTPMM(NSEAL), ETF(NSEAL),           &
 1174                                  ET1(NSEAL), ABX2M(NSEAL),            &
 1175                                  ABY2M(NSEAL), ABXM(NSEAL),           &
 1176                                  ABYM(NSEAL), ABXYM(NSEAL),           &
 1177                                  MSSXM(NSEAL), MSSYM(NSEAL),          &
 1178                                  MSSXTM(NSEAL), MSSYTM(NSEAL),        &
 1179                                  MSSXYM(NSEAL), THMP(NSEAL),          &
 1180                                  T02P(NSEAL), NV(NSEAL), NS(NSEAL),   &
 1181                                  NB(NSEAL), MODE(NSEAL),              &
 1182                                  MU(NSEAL), NI(NSEAL), STMAXEL(NSEAL),&
 1183                                  PHI(21,NSEAL),PHIST(NSEAL),         &
 1184                                  EBC(NK,NSEAL), ABP(NSEAL),           &
 1185                                  STMAXDL(NSEAL), TLPHI(NSEAL),        &
 1186                                  WL02X(NSEAL), WL02Y(NSEAL),          &
 1187                                  ALPXT(NSEAL), ALPYT(NSEAL),          &
 1188                                  ALPXY(NSEAL), SCREST(NSEAL)
 1189       REAL                       USSCO, FT1
 1190       REAL, SAVE              :: HSMIN = 0.01
 1191       LOGICAL                 :: FLOLOC(NOGRP,NGRPP)
 1192 !/
 1193 !/ ------------------------------------------------------------------- /
 1194 !/
 1195 !
 1196       DO I=1,NOGRP
 1197         DO J=1,NGRPP
 1198           FLOLOC(I,J) =   &
 1199              ((FLOUTG.AND.FLOGRD(I,J)).OR.(FLOUTG2.AND.FLOGR2(I,J)))
 1200           END DO
 1201         END DO
 1202 !
 1203       FXPMC  = 0.66 * GRAV / 28.
 1204       HSMIN  = HSMIN
 1205       FT1    =  0.3333 * SIG(NK)**2 * DTH * SIG(NK)
 1206 !
 1207 ! 1.  Initialize storage arrays -------------------------------------- *
 1208 !
 1209       ET     = 0.
 1210       ET02   = 0.
 
 
                                                         w3iogomd.F90  page  23
 
 
 1211       EWN    = 0.
 1212       ETR    = 0.
 1213       ET1    = 0.
 1214       EET1   = 0.
 1215       ETX    = 0.
 1216       ETY    = 0.
 1217       ETXX   = 0.
 1218       ETYY   = 0.
 1219       ETXY   = 0.
 1220       ABR    = 0.
 1221       ABA    = 0.
 1222       ABD    = 0.
 1223       UBR    = 0.
 1224       UBA    = 0.
 1225       UBD    = 0.
 1226       UBS    = 0.
 1227       SXX    = 0.
 1228       SYY    = 0.
 1229       SXY    = 0.
 1230       USSX   = 0.
 1231       USSY   = 0.
 1232       TUSX   = 0.
 1233       TUSY   = 0.
 1234       MSSX   = 0.
 1235       MSSY   = 0.
 1236       MSSD   = 0.
 1237       MSCX   = 0.
 1238       MSCY   = 0.
 1239       MSCD   = 0.
 1240       PRMS   = 0.
 1241       TPMS   = 0.
 1242       ETUSCY = 0.
 1243       ETUSCY = 0.
 1244       ETMSSL = 0.
 1245       ETMSSCL= 0.
 1246       ETTPMM = 0.
 1247       EBD    = 0.
 1248       EC     = 0.
 1249       ETF    = 0.
 1250       EBC    = 0.
 1251       BHD = 0.
 1252       MSSXM = 0.
 1253       MSSYM = 0.
 1254       MSSXTM = 0.
 1255       MSSYTM = 0.
 1256       MSSXYM = 0.
 1257       PHI    = 0.
 1258       PHIST  = 0.
 1259       TLPHI  = 0.
 1260       STMAXEL = 0.
 1261       STMAXDL = 0.
 1262 !
 1263       HS     = UNDEF
 1264       WLM    = UNDEF
 1265       T0M1   = UNDEF
 
 
                                                         w3iogomd.F90  page  24
 
 
 1266       T01    = UNDEF
 1267       T02    = UNDEF
 1268       FP0    = UNDEF
 1269       THM    = UNDEF
 1270       THS    = UNDEF
 1271       THP0   = UNDEF
 1272       HSIG   = UNDEF
 1273       WL02X  = UNDEF
 1274       WL02Y  = UNDEF
 1275       ALPXY  = UNDEF
 1276       ALPXT  = UNDEF
 1277       ALPYT  = UNDEF
 1278       THMP = UNDEF
 1279       T02P = UNDEF
 1280       SCREST = UNDEF
 1281       NV = UNDEF
 1282       NS = UNDEF
 1283       NB = UNDEF
 1284       MU = UNDEF
 1285       NI = UNDEF
 1286       MODE = UNDEF
 1287       STMAXE = UNDEF
 1288       STMAXD = UNDEF
 1289       HCMAXE = UNDEF
 1290       HMAXE = UNDEF
 1291       HCMAXD = UNDEF
 1292       HMAXD = UNDEF
 1293       QP    = UNDEF
 1294       WBT    = UNDEF
 1295 !
 1296       FP1    = UNDEF
 1297       THP1   = UNDEF
 1298 !
 1299 ! 2.  Integral over discrete part of spectrum ------------------------ *
 1300 !
 1301       DO IK=1, NK
 1302 !
 1303 ! 2.a Initialize energy in band
 1304 !
 1305         AB     = 0.
 1306         ABX    = 0.
 1307         ABY    = 0.
 1308         ABX2   = 0.
 1309         ABY2   = 0.
 1310         AB2X   = 0.
 1311         AB2Y   = 0.
 1312         ABXX   = 0.
 1313         ABYY   = 0.
 1314         ABXY   = 0.
 1315         ABYX   = 0.
 1316         ABST   = 0.
 1317 !
 1318 ! 2.b Integrate energy in band
 1319 !
 1320         DO ITH=1, NTH
 
 
                                                         w3iogomd.F90  page  25
 
 
 1321 !
 1322           DO JSEA=1, NSEAL
 1323             NKH(JSEA)  = MIN ( NK ,   &
 1324                     INT(FACTI2+FACTI1*LOG(MAX(1.E-7,FCUT(JSEA)))) )
 1325             AB (JSEA)  = AB (JSEA) + A(ITH,IK,JSEA)
 1326             ABX(JSEA)  = ABX(JSEA) + A(ITH,IK,JSEA)*ECOS(ITH)
 1327             ABY(JSEA)  = ABY(JSEA) + A(ITH,IK,JSEA)*ESIN(ITH)
 1328 ! These are the integrals with cos^2 and sin^2
 1329             ABX2(JSEA) = ABX2(JSEA) + A(ITH,IK,JSEA)*EC2(ITH)
 1330             ABY2(JSEA) = ABY2(JSEA) + A(ITH,IK,JSEA)*ES2(ITH)
 1331 ! Using trig identities to represent cos2theta and sin2theta.
 1332             AB2X(JSEA) = AB2X(JSEA) + A(ITH,IK,JSEA)*(2*EC2(ITH) - 1)
 1333             AB2Y(JSEA) = AB2Y(JSEA) + A(ITH,IK,JSEA)*(2*ESC(ITH))
 1334             ABYX(JSEA) = ABYX(JSEA) + A(ITH,IK,JSEA)*ESC(ITH)
 1335             IF (ITH.LE.NTH/2) THEN
 1336               ABST(JSEA) = ABST(JSEA) +                               &
 1337                               A(ITH,IK,JSEA)*A(ITH+NTH/2,IK,JSEA)
 1338               END IF
 1339             CALL INIT_GET_ISEA(ISEA, JSEA)
 1340             FACTOR     = MAX ( 0.5 , CG(IK,ISEA)/SIG(IK)*WN(IK,ISEA) )
 1341             ABXX(JSEA) = ABXX(JSEA) + ((1.+EC2(ITH))*FACTOR-0.5) *    &
 1342                                      A(ITH,IK,JSEA)
 1343             ABYY(JSEA) = ABYY(JSEA) + ((1.+ES2(ITH))*FACTOR-0.5) *    &
 1344                                      A(ITH,IK,JSEA)
 1345             ABXY(JSEA) = ABXY(JSEA) + ESC(ITH)*FACTOR * A(ITH,IK,JSEA)
 1346             END DO
 1347 !
 1348           END DO
 1349 !
 1350 ! 2.c Finalize integration over band and update mean arrays
 1351 !
 1352         DO JSEA=1, NSEAL
 1353           CALL INIT_GET_ISEA(ISEA, JSEA)
 1354           FACTOR       = DDEN(IK) / CG(IK,ISEA)
 1355           EBD(IK,JSEA) = AB(JSEA) * FACTOR
 1356           ET (JSEA)    = ET (JSEA) + EBD(IK,JSEA)
 1357      IF (IK.EQ.NINT(IGPARS(5))) HSIG(JSEA) = 4*SQRT(ET(JSEA))
 1358           ETF(JSEA)  = ETF(JSEA) + EBD(IK,JSEA) * CG(IK,ISEA)
 1359           EWN(JSEA)  = EWN(JSEA) + EBD(IK,JSEA) / WN(IK,ISEA)
 1360           ETR(JSEA)  = ETR(JSEA) + EBD(IK,JSEA) / SIG(IK)
 1361           ET1(JSEA)  = ET1(JSEA) + EBD(IK,JSEA) * SIG(IK)
 1362           EET1(JSEA) = EET1(JSEA)+ EBD(IK,JSEA)**2 * SIG(IK)
 1363           ET02(JSEA) = ET02(JSEA)+ EBD(IK,JSEA) * SIG(IK)**2
 1364           ETX(JSEA)  = ETX(JSEA) + ABX(JSEA) * FACTOR
 1365           ETY(JSEA)  = ETY(JSEA) + ABY(JSEA) * FACTOR
 1366           TUSX(JSEA) = TUSX(JSEA) + ABX(JSEA)*FACTOR               &
 1367                      *GRAV*WN(IK,ISEA)/SIG(IK)
 1368           TUSY(JSEA)  = TUSY(JSEA) + ABY(JSEA)*FACTOR               &
 1369                      *GRAV*WN(IK,ISEA)/SIG(IK)
 1370           ETXX(JSEA) = ETXX(JSEA) + ABX2(JSEA) * FACTOR* WN(IK,ISEA)**2
 1371           ETYY(JSEA) = ETYY(JSEA) + ABY2(JSEA) * FACTOR* WN(IK,ISEA)**2
 1372           ETXY(JSEA) = ETXY(JSEA) + ABYX(JSEA) * FACTOR* WN(IK,ISEA)**2
 1373           IF (SIG(IK)*0.5*(1+XFR).LT.0.4*TPI) THEN
 1374             ETMSSL(JSEA)  = ETMSSL(JSEA) + AB(JSEA)*FACTOR           &
 1375                      *WN(IK,ISEA)**2
 
 
                                                         w3iogomd.F90  page  26
 
 
 1376           ELSE
 1377             IF (SIG(MAX(IK-1,1))*0.5*(1+XFR).LT.0.4*TPI) THEN
 1378               ETMSSL(JSEA)  = ETMSSL(JSEA) + AB(JSEA)*FACTOR         &
 1379                      *(SIG(IK)*0.5*(1+1/XFR)-(0.4*TPI))/DSII(IK)     &
 1380                      *WN(IK,ISEA)**2
 1381               FACTOR2       = SIG(IK)**5/(GRAV**2)/DSII(IK)
 1382               ETMSSCL(JSEA) = AB(JSEA)*FACTOR*FACTOR2
 1383               END IF
 1384             END IF
 1385 !
 1386           UBS(JSEA) = UBS(JSEA) + AB(JSEA) * SIG(IK)**2
 1387 !
 1388 !   2nd order equivalent surface pressure spectral density at K=0
 1389 !   this is used for microseismic or microbarom sources
 1390 !   Finite water depth corrections (Ardhuin & Herbers 2013) are not
 1391 !   included here.
 1392 !
 1393           FACTOR2 = DTH*2/(TPI**2)                        &
 1394                     * SIG(IK)                             &
 1395                     * (TPI*SIG(IK)/CG(IK,ISEA))**2        &  ! Jacobian^2>
 1396                     * ABST(JSEA)
 1397 !
 1398 !   Integration over seismic radian frequency : *2*dsigma
 1399 !
 1400           PRMS(JSEA)  = PRMS(JSEA) + FACTOR2 * 2 * DSII(IK)
 1401           IF ( FLOLOC (6, 9).AND.(IK.GE.P2MSF(2).AND.IK.LE.P2MSF(3)))   &
 1402             P2SMS(JSEA,IK) = FACTOR2 * 2 * TPI
 1403           IF (FACTOR2 .GT. ETTPMM(JSEA)) THEN
 1404             ETTPMM(JSEA) = FACTOR2
 1405             TPMS(JSEA) = TPI/SIG(IK)
 1406             END IF
 1407                   
 1408 !
 1409 ! Directional moments in the last freq. band
 1410 !
 1411           IF (IK.EQ.NK) THEN
 1412             FACTOR2       = SIG(IK)**5/(GRAV**2)/DSII(IK)
 1413             ETUSCX(JSEA)  = ABX(JSEA)*FACTOR*FACTOR2
 1414             ETUSCY(JSEA)  = ABY(JSEA)*FACTOR*FACTOR2
 1415 !
 1416 !     NB: the slope PDF is proportional to ell1=ETYY*EC2-2*ETXY*ECS+ETYY*>
 1417 !     This is an ellipse equation with axis direction given by dir=0.5*AT>
 1418 !
 1419             MA  = ABX2(JSEA) * FACTOR * FACTOR2
 1420             MC  = ABY2(JSEA) * FACTOR * FACTOR2
 1421             MB  = ABYX(JSEA) * FACTOR * FACTOR2
 1422 !
 1423 ! Old definitions:  MSCX(JSEA)  = ABX2(JSEA) * FACTOR * FACTOR2
 1424 !                   MSCY(JSEA)  = ABY2(JSEA) * FACTOR * FACTOR2
 1425             MSCD(JSEA)=0.5*ATAN2(2*MB,MA-MC)
 1426                                             
 1427             MSCX(JSEA)= MA*COS(MSCD(JSEA))**2   &
 1428                        +2*MB*SIN(MSCD(JSEA))*COS(MSCD(JSEA))+MA*SIN(MSCD(>
 1429             MSCY(JSEA)= MC*COS(MSCD(JSEA))**2   &
 1430                        -2*MB*SIN(MSCD(JSEA))*COS(MSCD(JSEA))+MA*SIN(MSCD(>
 
 
                                                         w3iogomd.F90  page  27
 
 
 1431             END IF
 1432 !
 1433 ! Deep water limits
 1434 !
 1435           KD    = MAX ( 0.001 , WN(IK,ISEA) * DW(ISEA) )
 1436           IF ( KD .LT. 6. ) THEN
 1437             FKD       = FACTOR / SINH(KD)**2
 1438             ABR(JSEA) = ABR(JSEA) + AB(JSEA) * FKD
 1439             ABA(JSEA) = ABA(JSEA) + ABX(JSEA) * FKD
 1440             ABD(JSEA) = ABD(JSEA) + ABY(JSEA) * FKD
 1441             UBR(JSEA) = UBR(JSEA) + AB(JSEA) * SIG(IK)**2 * FKD
 1442             UBA(JSEA) = UBA(JSEA) + ABX(JSEA) * SIG(IK)**2 * FKD
 1443             UBD(JSEA) = UBD(JSEA) + ABY(JSEA) * SIG(IK)**2 * FKD
 1444             USSCO=FKD*SIG(IK)*WN(IK,ISEA)*COSH(2.*KD)
 1445             BHD(JSEA) = BHD(JSEA) +                             &
 1446                 GRAV*WN(IK,ISEA) * EBD(IK,JSEA) / (SINH(2.*KD))
 1447           ELSE
 1448             USSCO=FACTOR*SIG(IK)*2.*WN(IK,ISEA)
 1449             END IF
 1450 !
 1451           ABXX(JSEA)   = MAX ( 0. , ABXX(JSEA) ) * FACTOR
 1452           ABYY(JSEA)   = MAX ( 0. , ABYY(JSEA) ) * FACTOR
 1453           ABXY(JSEA)   = ABXY(JSEA) * FACTOR
 1454           SXX(JSEA)    = SXX(JSEA)  + ABXX(JSEA)
 1455           SYY(JSEA)    = SYY(JSEA)  + ABYY(JSEA)
 1456           SXY(JSEA)    = SXY(JSEA)  + ABXY(JSEA)
 1457           EBD(IK,JSEA) = EBD(IK,JSEA) / DSII(IK)
 1458 !
 1459           IF ( FLOLOC( 3, 1).AND.(IK.GE.E3DF(2,1).AND.IK.LE.E3DF(3,1)))  >
 1460             EF(JSEA,IK)  = EBD(IK,JSEA) * TPI
 1461 !
 1462           USSX(JSEA)  = USSX(JSEA) + ABX(JSEA)*USSCO
 1463           USSY(JSEA)  = USSY(JSEA) + ABY(JSEA)*USSCO
 1464 !
 1465 ! Fills the 3D Stokes drift spectrum array
 1466 !  ! The US3D Stokes drift specrum array is now calculated in a
 1467 !  subroutine and called at the end of this subroutine
 1468 !          IF ( FLOLOC( 6, 8).AND.(IK.GE.US3DF(2).AND.IK.LE.US3DF(3) ))  >
 1469 !            US3D(JSEA,IK)    =  ABX(JSEA)*USSCO/(DSII(IK)*TPIINV)
 1470 !            US3D(JSEA,NK+IK) =  ABY(JSEA)*USSCO/(DSII(IK)*TPIINV)
 1471 !          END IF
 1472           IF ( FLOLOC( 3, 2).AND.(IK.GE.E3DF(2,2).AND.IK.LE.E3DF(3,2)))  &
 1473             TH1M(JSEA,IK)= MOD ( 630. - RADE*ATAN2(ABY(JSEA),ABX(JSEA)) ,>
 1474           M1 = SQRT(ABX(JSEA)**2+ABY(JSEA)**2)/MAX(1E-20,AB(JSEA))
 1475           IF ( FLOLOC( 3, 3).AND.(IK.GE.E3DF(2,3).AND.IK.LE.E3DF(3,3)))  &
 1476              STH1M(JSEA,IK)= SQRT(ABS(2.*(1-M1)))*RADE
 1477           IF ( FLOLOC( 3, 4).AND.(IK.GE.E3DF(2,4).AND.IK.LE.E3DF(3,4)))  &
 1478             TH2M(JSEA,IK)= MOD ( 270. - RADE*0.5*ATAN2(ABY2(JSEA),AB2X(JS>
 1479           M2 = SQRT(AB2X(JSEA)**2+AB2Y(JSEA)**2)/MAX(1E-20,AB(JSEA))
 1480           IF ( FLOLOC( 3, 5).AND.(IK.GE.E3DF(2,5).AND.IK.LE.E3DF(3,5)))  &
 1481              STH2M(JSEA,IK)= SQRT(ABS(0.5*(1-M2)))*RADE
 1482           END DO
 1483 !
 1484         END DO
 1485 !
 
 
                                                         w3iogomd.F90  page  28
 
 
 1486 ! Start of Space-Time Extremes Section
 1487      IF ( ( STEXU .GT. 0. .AND. STEYU .GT. 0. ) &
 1488                                       .OR. ( STEDU .GT. 0. ) ) THEN
 1489 !  Space-Time extremes
 1490 !    (for references:
 1491 !     - Krogstad et al, OMAE 2004
 1492 !     - Baxevani and Rychlik, OE 2006
 1493 !     - Adler and Taylor, 2007
 1494 !     - Fedele, JPO 2012
 1495 !     - Fedele et al, OM 2013
 1496 !     - Benetazzo et al, JPO 2015)
 1497 !
 1498 !  Compute spectral parameters wrt the mean wave direction
 1499 !  (no tail contribution - Prognostic)
 1500       DO JSEA=1, NSEAL
 1501         ISEA   = JSEA
 1502         IX     = MAPSF(ISEA,1)
 1503         IY     = MAPSF(ISEA,2)
 1504         IF ( MAPSTA(IY,IX) .GT. 0 ) THEN
 1505           IF ( ABS(ETX(JSEA))+ABS(ETY(JSEA)) .GT. 1.E-7 ) THEN
 1506             THMP(JSEA) = ATAN2(ETY(JSEA),ETX(JSEA))
 1507             END IF
 1508           END IF
 1509         END DO
 1510 !
 1511       DO IK=1, NK
 1512 !
 1513         ABX2M = 0.
 1514         ABY2M = 0.
 1515         ABXM = 0.
 1516         ABYM = 0.
 1517         ABXYM = 0.
 1518 !
 1519         DO ITH=1, NTH
 1520 !
 1521           DO JSEA=1, NSEAL
 1522         ISEA      = JSEA
 1523             ABX2M(JSEA) = ABX2M(JSEA) + A(ITH,IK,JSEA)*                &
 1524               (ECOS(ITH)*COS(THMP(JSEA))+ESIN(ITH)*SIN(THMP(JSEA)))**2
 1525             ABY2M(JSEA) = ABY2M(JSEA) + A(ITH,IK,JSEA)*                &
 1526               (ESIN(ITH)*COS(THMP(JSEA))-ECOS(ITH)*SIN(THMP(JSEA)))**2
 1527             ABXM(JSEA)  = ABXM(JSEA) + A(ITH,IK,JSEA)*                 &
 1528               (ECOS(ITH)*COS(THMP(JSEA))+ESIN(ITH)*SIN(THMP(JSEA)))
 1529             ABYM(JSEA)  = ABYM(JSEA) + A(ITH,IK,JSEA)*                 &
 1530               (ESIN(ITH)*COS(THMP(JSEA))-ECOS(ITH)*SIN(THMP(JSEA)))
 1531             ABXYM(JSEA) = ABXYM(JSEA) + A(ITH,IK,JSEA)*                &
 1532               (ECOS(ITH)*COS(THMP(JSEA))+ESIN(ITH)*SIN(THMP(JSEA)))*   &
 1533               (ESIN(ITH)*COS(THMP(JSEA))-ECOS(ITH)*SIN(THMP(JSEA)))
 1534             END DO
 1535 !
 1536           END DO
 1537 !
 1538         DO JSEA=1, NSEAL
 1539           ISEA         = JSEA
 1540           FACTOR       = DDEN(IK) / CG(IK,ISEA)
 
 
                                                         w3iogomd.F90  page  29
 
 
 1541           MSSXM(JSEA)  = MSSXM(JSEA) + ABX2M(JSEA)*FACTOR*             &
 1542             WN(IK,ISEA)**2
 1543           MSSYM(JSEA)  = MSSYM(JSEA) + ABY2M(JSEA)*FACTOR*             &
 1544             WN(IK,ISEA)**2
 1545           MSSXTM(JSEA)  = MSSXTM(JSEA) + ABXM(JSEA)*FACTOR*WN(IK,ISEA)* &
 1546             SIG(IK)
 1547           MSSYTM(JSEA)  = MSSYTM(JSEA) + ABYM(JSEA)*FACTOR*WN(IK,ISEA)* &
 1548             SIG(IK)
 1549           MSSXYM(JSEA)  = MSSXYM(JSEA) + ABXYM(JSEA)*FACTOR*           &
 1550             WN(IK,ISEA)**2
 1551           END DO
 1552 !
 1553         END DO
 1554               
 1555 !
 1556         DO JSEA=1, NSEAL
 1557         ISEA      = JSEA
 1558         IX     = MAPSF(ISEA,1)
 1559         IY     = MAPSF(ISEA,2)
 1560 !
 1561 !  Mean wave period (no tail contribution - Prognostic)
 1562         IF ( ET02(JSEA) .GT. 1.E-7 ) THEN
 1563           T02P(JSEA) = TPI * SQRT(ET(JSEA) / ET02(JSEA) )
 1564           END IF
 1565 !
 1566 !  Mean wavelength and mean crest length (02) for space-time extremes
 1567         IF ( MSSXM(JSEA) .GT. 1.E-7 ) THEN
 1568           WL02X(JSEA) = TPI * SQRT(ET(JSEA) / MSSXM(JSEA))
 1569           END IF
 1570         IF ( MSSYM(JSEA) .GT. 1.E-7 ) THEN
 1571           WL02Y(JSEA) = TPI * SQRT(ET(JSEA) / MSSYM(JSEA))
 1572           END IF
 1573 !
 1574 !  Irregularity parameters for space-time extremes
 1575         IF ((MSSXM(JSEA) .GT. 1.E-7) .AND. (ET02(JSEA) .GT. 1.E-7)) THEN
 1576           ALPXT(JSEA) = MSSXTM(JSEA) / (SQRT(MSSXM(JSEA) * ET02(JSEA)))
 1577           ENDIF
 1578         IF ((MSSYM(JSEA) .GT. 1.E-7) .AND. (ET02(JSEA) .GT. 1.E-7)) THEN
 1579           ALPYT(JSEA) = MSSYTM(JSEA) / (SQRT(MSSYM(JSEA) * ET02(JSEA)))
 1580           ENDIF
 1581         IF ((MSSXM(JSEA) .GT. 1.E-7) .AND. (MSSYM(JSEA) .GT. 1.E-7)) THEN
 1582           ALPXY(JSEA) = MSSXYM(JSEA) / (SQRT(MSSXM(JSEA) * MSSYM(JSEA)))
 1583           ENDIF
 1584 !
 1585 !  Short-crestedness parameter
 1586         IF (MSSXM(JSEA) .GT. 1.E-7)  THEN
 1587           SCREST(JSEA) = SQRT(MSSYM(JSEA)/MSSXM(JSEA))
 1588           END IF
 1589 !
 1590 !  Space domain size (user-defined or default)
 1591         IF ( STEXU .GT. 0 .AND. STEYU .GT. 0 ) THEN
 1592           STEX = STEXU
 1593           STEY = STEYU
 1594         ELSE
 1595           STEX = 0.
 
 
                                                         w3iogomd.F90  page  30
 
 
 1596           STEY = 0.
 1597         END IF
 1598 !
 1599 !  Time domain size (user-defined or default)
 1600         IF ( STEDU .GT. 0 ) THEN
 1601           STED = STEDU
 1602           ELSE
 1603           STED = 0.
 1604           END IF
 1605 !
 1606 !  Average numbers of waves in the space-time domain (Volume+Sides+Border>
 1607         IF ((WL02X(JSEA) .GT. 1.E-7) .AND. (WL02Y(JSEA) .GT. 1.E-7)    &
 1608           .AND. (T02P(JSEA) .GT. 1.E-7)) THEN
 1609           NV(JSEA) = TPI*(STEX*STEY*STED)/                             &
 1610             (WL02X(JSEA)*WL02Y(JSEA)*T02P(JSEA))  *                    &
 1611             SQRT(1-ALPXT(JSEA)**2-ALPYT(JSEA)**2  -                    &
 1612             ALPXY(JSEA)**2+2*ALPXT(JSEA)*ALPYT(JSEA)*ALPXY(JSEA))
 1613           NS(JSEA) = SQRT(TPI)*((STEX*STED)/(WL02X(JSEA)*T02P(JSEA)) * &
 1614             SQRT(1-ALPXT(JSEA)**2) +                                   &
 1615             (STEY*STED)/(WL02Y(JSEA)*T02P(JSEA)) *                     &
 1616             SQRT(1-ALPYT(JSEA)**2) +                                   &
 1617             (STEX*STEY)/(WL02X(JSEA)*WL02Y(JSEA)) *                    &
 1618             SQRT(1-ALPXY(JSEA)**2))
 1619           NB(JSEA) = STEX/WL02X(JSEA) + STEY/WL02Y(JSEA) +             &
 1620                         STED/T02P(JSEA)
 1621           END IF
 1622 !
 1623 ! Integral measure of wave steepness (Fedele & Tayfun, 2009) MU, as a
 1624 ! function of the spectral width parameter NI (Longuet-Higgins, 1985)
 1625         IF (ET1(JSEA) .GT. 1.E-7) THEN
 1626           NI(JSEA) = SQRT(ET(JSEA)*ET02(JSEA)/ET1(JSEA)**2 - 1)
 1627           ENDIF
 1628         IF (ET(JSEA) .GT. 1.E-7) THEN
 1629           MU(JSEA) = ET1(JSEA)**2/GRAV * (ET(JSEA))**(-1.5) *          &
 1630             (1-NI(JSEA)+NI(JSEA)**2)
 1631           ENDIF
 1632 !
 1633 ! Mode of the Adler&Taylor distribution
 1634 ! (normalized on the standard deviation = Hs/4)
 1635 ! Time extremes
 1636       IF ((STEX .EQ. 0) .AND. (STEY .EQ. 0)) THEN
 1637         MODE(JSEA) = SQRT(2.*LOG(NB(JSEA)))
 1638 ! Space extremes (strictly for STEX*STEY >> WL02X*WL02Y)
 1639       ELSEIF (STED .EQ. 0) THEN
 1640         MODE(JSEA) = SQRT(2.*LOG(NS(JSEA))+LOG(2.*LOG(NS(JSEA))+     &
 1641                      LOG(2.*LOG(NS(JSEA)))))
 1642 ! Space-time extremes (strictly for STEX*STEY >> WL02X*WL02Y)
 1643       ELSEIF ((WL02X(JSEA) .GT. 1.E-7) .AND. (WL02Y(JSEA) .GT. 1.E-7) &
 1644           .AND. (T02P(JSEA) .GT. 1.E-7)) THEN
 1645         MODE(JSEA) = SQRT(2.*LOG(NV(JSEA))+2.*LOG(2.*LOG(NV(JSEA))+  &
 1646          2.*LOG(2.*LOG(NV(JSEA)))))
 1647       ENDIF
 1648 !
 1649 ! Expected maximum sea surface elevation in the ST domain - nonlinear
 1650 ! (in meters, Hs/4=SQRT(ET(JSEA)))
 
 
                                                         w3iogomd.F90  page  31
 
 
 1651       STMAXE(JSEA) = SQRT(ET(JSEA)) *                                &
 1652           ( MODE(JSEA)+0.5*MU(JSEA)*MODE(JSEA)**2 +                  &
 1653           0.5772*(1+MU(JSEA)*MODE(JSEA)) /                           &
 1654           (MODE(JSEA)-(2*NV(JSEA)*MODE(JSEA)+NS(JSEA)) /             &
 1655           (NV(JSEA)*MODE(JSEA)**2+NS(JSEA)*MODE(JSEA)+NB(JSEA))) )
 1656 !
 1657 ! Standard deviation of the maximum sea surface elevation in ST domain
 1658 !  - nonlinear (in meters, Hs/4=SQRT(ET(JSEA)))
 1659       STMAXD(JSEA) =  SQRT(ET(JSEA)) *                               &
 1660           ( PI*(1+MU(JSEA)*MODE(JSEA))/SQRT(6.) /                    &
 1661           (MODE(JSEA)-(2*NV(JSEA)*MODE(JSEA)+NS(JSEA)) /             &
 1662           (NV(JSEA)*MODE(JSEA)**2+NS(JSEA)*MODE(JSEA)+NB(JSEA))) )
 1663 !
 1664 ! Autocovariance (time) function (normalized on the maximum, i.e. total
 1665 ! variance)
 1666       IF (T02P(JSEA) .GT. 1.E-7) THEN
 1667         TLPHI(JSEA) = 0.3*T02P(JSEA)
 1668         DO ITL = 1, 21
 1669           DO IK = 1, NK-3, 4
 1670              PHI(ITL,JSEA) = PHI(ITL,JSEA) +                          &
 1671                  (XFR**3*EBD(IK+3,JSEA)*COS(XFR**3*SIG(IK)*TLPHI(JSEA))+ >
 1672                  XFR**2*EBD(IK+2,JSEA)*COS(XFR**2*SIG(IK)*TLPHI(JSEA))+  >
 1673                  XFR*EBD(IK+1,JSEA)*COS(XFR*SIG(IK)*TLPHI(JSEA)) +       >
 1674                  EBD(IK,JSEA)*COS(SIG(IK)*TLPHI(JSEA)))*DSII(IK)
 1675              ENDDO
 1676           TLPHI(JSEA) = TLPHI(JSEA) + T02P(JSEA)/20.
 1677           ENDDO
 1678           PHI(:,JSEA) = PHI(:,JSEA)/ET(JSEA)
 1679 !
 1680 ! First minimum of the autocovariance function (absolute value)
 1681         PHIST(JSEA) = ABS(MINVAL(PHI(:,JSEA),1))
 1682       ENDIF
 1683 !
 1684 ! Wave height of the wave with the maximum expected crest height
 1685 ! and corresponding standard deviation
 1686 ! (according to Boccotti Quasi-Determinism theory - linear)
 1687         STMAXEL(JSEA) = SQRT(ET(JSEA)) * ( MODE(JSEA)+0.5772 /         &
 1688             (MODE(JSEA)-(2*NV(JSEA)*MODE(JSEA)+NS(JSEA)) /             &
 1689             (NV(JSEA)*MODE(JSEA)**2+NS(JSEA)*MODE(JSEA)+NB(JSEA))) )
 1690         STMAXDL(JSEA) = SQRT(ET(JSEA)) *                               &
 1691             ( PI/SQRT(6.) /                                            &
 1692             (MODE(JSEA)-(2*NV(JSEA)*MODE(JSEA)+NS(JSEA)) /             &
 1693             (NV(JSEA)*MODE(JSEA)**2+NS(JSEA)*MODE(JSEA)+NB(JSEA))) )
 1694         HCMAXE(JSEA) = STMAXEL(JSEA)*(1+PHIST(JSEA))
 1695         HCMAXD(JSEA) = STMAXDL(JSEA)*(1+PHIST(JSEA))
 1696 ! Maximum expected wave height and corresponding standard deviation
 1697 ! (according to Boccotti Quasi-Determinism theory - linear)
 1698         HMAXE(JSEA) = STMAXEL(JSEA)*SQRT(2*(1+PHIST(JSEA)))
 1699         HMAXD(JSEA) = STMAXDL(JSEA)*SQRT(2*(1+PHIST(JSEA)))
 1700         ENDDO
 1701 !
 1702  
 1703 ! End of Space-Time Extremes Section
 1704      ENDIF
 1705 !
 
 
                                                         w3iogomd.F90  page  32
 
 
 1706 ! 3.  Finalize computation of mean parameters ------------------------ *
 1707 !
 1708       DO JSEA=1, NSEAL
 1709         CALL INIT_GET_ISEA(ISEA, JSEA)
 1710 !
 1711 ! 3.a Directional mss parameters
 1712 !     NB: the slope PDF is proportional to ell1=ETYY*EC2-2*ETXY*ECS+ETXX*>
 1713 !     This is an ellipse equation with axis direction given by dir=0.5*AT>
 1714 !     From matlab script: t0=0.5*(atan2(2.*B,A-C));
 1715 !     From matlab script: A2=A.*cos(t0).^2+2.*B.*sin(t0).*cos(t0)+A.*cos(>
 1716 !     From matlab script: C2=C.*cos(t0)^2-2.*B.*sin(t0).*cos(t0)+A.*sin(t>
 1717          MSSD(JSEA)=0.5*(ATAN2(2*ETXY(JSEA),ETXX(JSEA)-ETYY(JSEA)))
 1718          MSSX(JSEA)  = ETXX(JSEA)*COS(MSSD(JSEA))**2   &
 1719                        +2*ETXY(JSEA)*SIN(MSSD(JSEA))*COS(MSSD(JSEA))+ETYY>
 1720          MSSY(JSEA)  = ETYY(JSEA)*COS(MSSD(JSEA))**2   &
 1721                        -2*ETXY(JSEA)*SIN(MSSD(JSEA))*COS(MSSD(JSEA))+ETXX>
 1722 !
 1723 ! 3.b Add tail
 1724 !     ( DTH * SIG absorbed in FTxx )
 1725                                     
 1726         EBAND     = AB(JSEA) / CG(NK,ISEA)
 1727         ET (JSEA) = ET (JSEA) + FTE  * EBAND
 1728         EWN(JSEA) = EWN(JSEA) + FTWL * EBAND
 1729         ETF(JSEA) = ETF(JSEA) + GRAV * FTTR * EBAND  ! this is the integr>
 1730         ETR(JSEA) = ETR(JSEA) + FTTR * EBAND
 1731         ET1(JSEA) = ET1(JSEA) + FT1  * EBAND
 1732         EET1(JSEA)= ET1(JSEA) + FT1  * EBAND**2
 1733         ET02(JSEA)= ET02(JSEA)+ EBAND* 0.5 * SIG(NK)**4 * DTH
 1734         ETX(JSEA) = ETX(JSEA) + FTE * ABX(JSEA) / CG(NK,ISEA)
 1735         ETY(JSEA) = ETY(JSEA) + FTE * ABY(JSEA) / CG(NK,ISEA)
 1736         SXX(JSEA) = SXX(JSEA) + FTE * ABXX(JSEA) / CG(NK,ISEA)
 1737         SYY(JSEA) = SYY(JSEA) + FTE * ABYY(JSEA) / CG(NK,ISEA)
 1738         SXY(JSEA) = SXY(JSEA) + FTE * ABXY(JSEA) / CG(NK,ISEA)
 1739 !
 1740 ! Tail for surface stokes drift is commented out: very sensitive to tail >
 1741 !
 1742 !       USSX(JSEA)  = USSX(JSEA) + 2*GRAV*ETUSCX(JSEA)/SIG(NK)
 1743 !       USSY(JSEA)  = USSY(JSEA) + 2*GRAV*ETUSCY(JSEA)/SIG(NK)
 1744         UBS(JSEA) = UBS(JSEA) + FTWL * EBAND/GRAV
 1745         END DO
 1746 !
 1747       SXX    = SXX * DWAT * GRAV
 1748       SYY    = SYY * DWAT * GRAV
 1749       SXY    = SXY * DWAT * GRAV
 1750 !
 1751       DO JSEA=1, NSEAL
 1752         CALL INIT_GET_ISEA(ISEA, JSEA)
 1753         IX     = MAPSF(ISEA,1)
 1754         IY     = MAPSF(ISEA,2)
 1755         IF ( MAPSTA(IY,IX) .GT. 0 ) THEN
 1756             HS (JSEA) = 4. * SQRT ( ET(JSEA) )
 1757             IF ( ET(JSEA) .GT. 1.E-7 ) THEN
 1758                 QP(JSEA) = ( 2. / ET(JSEA)**2 ) * EET1(JSEA) * TPIINV**2
 1759                 WLM(JSEA) = EWN(JSEA) / ET(JSEA) * TPI
 1760                 T0M1(JSEA) = ETR(JSEA) / ET(JSEA) * TPI
 
 
                                                         w3iogomd.F90  page  33
 
 
 1761                 THS(JSEA) = RADE * SQRT ( MAX ( 0. , 2. * ( 1. - SQRT ( &
 1762                 MAX(0.,(ETX(JSEA)**2+ETY(JSEA)**2)/ET(JSEA)**2) ) ) ) )
 1763                 IF ( THS(JSEA) .LT. 0.01*RADE*DTH ) THS(JSEA) = 0.
 1764               ELSE
 1765                 WLM(JSEA) = 0.
 1766                 T0M1(JSEA) = TPI / SIG(NK)
 1767                 THS(JSEA) = 0.
 1768               END IF
 1769             IF ( ABS(ETX(JSEA))+ABS(ETY(JSEA)) .GT. 1.E-7 ) THEN
 1770                 THM(JSEA) = ATAN2(ETY(JSEA),ETX(JSEA))
 1771               ELSE
 1772                 THM(JSEA) = 0.
 1773               END IF
 1774             ABR(JSEA) = SQRT ( 2. * MAX ( 0. , ABR(JSEA) ) )
 1775             IF ( ABR(JSEA) .GE. 1.E-7 ) THEN
 1776                 ABD(JSEA) = ATAN2(ABD(JSEA),ABA(JSEA))
 1777               ELSE
 1778                 ABD(JSEA) = 0.
 1779               ENDIF
 1780             ABA(JSEA) = ABR(JSEA)
 1781             UBR(JSEA) = SQRT ( 2. * MAX ( 0. , UBR(JSEA) ) )
 1782             IF ( UBR(JSEA) .GE. 1.E-7 ) THEN
 1783                 UBD(JSEA) = ATAN2(UBD(JSEA),UBA(JSEA))
 1784               ELSE
 1785                 UBD(JSEA) = 0.
 1786               ENDIF
 1787             UBA(JSEA) = UBR(JSEA)
 1788             CGE(JSEA) = DWAT*GRAV*ETF(JSEA)
 1789             IF ( ET02(JSEA) .GT. 1.E-7  .AND.  ET(JSEA) .GT. 0 ) THEN
 1790               T02(JSEA) = TPI * SQRT(ET(JSEA) / ET02(JSEA) )
 1791               T01(JSEA) = TPI * ET(JSEA) / ET1(JSEA)
 1792             ELSE
 1793               T02(JSEA) = TPI / SIG(NK)
 1794               T01(JSEA)= T02(JSEA)
 1795               ENDIF
 1796 !
 1797 !  Add here USERO(JSEA,1) ...
 1798 !
 1799           END IF
 1800         END DO
 1801 !
 1802 ! 3.b Clean-up small values if !/O8 switch selected
 1803 !
 1804 ! 4.  Peak frequencies and directions -------------------------------- *
 1805 ! 4.a Initialize
 1806 !
 1807       DO JSEA=1, NSEAL
 1808         CALL INIT_GET_ISEA(ISEA, JSEA)
 1809         EC  (JSEA) = EBD(NK,JSEA)
 1810         FP0 (JSEA) = UNDEF
 1811         IKP0(JSEA) = 0
 1812         THP0(JSEA) = UNDEF
 1813         FP1 (JSEA) = UNDEF
 1814         IKP1(JSEA) = 0
 1815         THP1(JSEA) = UNDEF
 
 
                                                         w3iogomd.F90  page  34
 
 
 1816         END DO
 1817 !
 1818 ! 4.b Discrete peak frequencies
 1819 !
 1820       DO IK=NK-1, 2, -1
 1821 !
 1822         DO JSEA=1, NSEAL
 1823           CALL INIT_GET_ISEA(ISEA, JSEA)
 1824           IF ( EC(JSEA) .LT. EBD(IK,JSEA) ) THEN
 1825               EC  (JSEA) = EBD(IK,JSEA)
 1826               IKP0(JSEA) = IK
 1827             END IF
 1828           IF ( IKP1(JSEA).EQ.0                             &
 1829                  .AND. EBD(IK-1,JSEA).LT.EBD(IK,JSEA)      &
 1830                  .AND. EBD(IK-1,JSEA).LT.EBD(IK+1,JSEA)    &
 1831                  .AND. SIG(IK).GT.FXPMC/MAX(1.E-4,UST(ISEA)) &
 1832                  .AND. SIG(IK).LT.0.75*SIG(NK) )           &
 1833               IKP1(JSEA) = IK
 1834           END DO
 1835 !
 1836         END DO
 1837 !
 1838       DO JSEA=1, NSEAL
 1839         CALL INIT_GET_ISEA(ISEA, JSEA)
 1840         IF ( IKP0(JSEA) .NE. 0 ) FP0(JSEA) = SIG(IKP0(JSEA)) * TPIINV
 1841         IF ( IKP1(JSEA) .NE. 0 ) FP1(JSEA) = SIG(IKP1(JSEA)) * TPIINV
 1842         END DO
 1843 !
 1844 ! 4.c Continuous peak frequencies
 1845 !
 1846       XL     = 1./XFR - 1.
 1847       XH     =  XFR - 1.
 1848       XL2    = XL**2
 1849       XH2    = XH**2
 1850 !
 1851       DO JSEA=1, NSEAL
 1852         CALL INIT_GET_ISEA(ISEA, JSEA)
 1853         ILOW   = MAX (  1 , IKP0(JSEA)-1 )
 1854         ICEN   = MAX (  1 , IKP0(JSEA)   )
 1855         IHGH   = MIN ( NK , IKP0(JSEA)+1 )
 1856         EL     = EBD(ILOW,JSEA) - EBD(ICEN,JSEA)
 1857         EH     = EBD(IHGH,JSEA) - EBD(ICEN,JSEA)
 1858         DENOM  = XL*EH - XH*EL
 1859         FP0(JSEA) = FP0 (JSEA) * ( 1. + 0.5 * ( XL2*EH - XH2*EL )     &
 1860                        / SIGN ( MAX(ABS(DENOM),1.E-15) , DENOM ) )
 1861         ILOW   = MAX (  1 , IKP1(JSEA)-1 )
 1862         ICEN   = MAX (  1 , IKP1(JSEA)   )
 1863         IHGH   = MIN ( NK , IKP1(JSEA)+1 )
 1864         EL     = EBD(ILOW,JSEA) - EBD(ICEN,JSEA)
 1865         EH     = EBD(IHGH,JSEA) - EBD(ICEN,JSEA)
 1866         DENOM  = XL*EH - XH*EL
 1867         FP1(JSEA) = FP1(JSEA) * ( 1. + 0.5 * (XL2*EH - XH2*EL )  &
 1868                        / SIGN ( MAX(ABS(DENOM),1.E-15) , DENOM ) )
 1869         END DO
 1870 !
 
 
                                                         w3iogomd.F90  page  35
 
 
 1871 ! 4.d Peak directions
 1872 !
 1873       DO JSEA=1, NSEAL
 1874         ETX(JSEA) = 0.
 1875         ETY(JSEA) = 0.
 1876         END DO
 1877 !
 1878       DO ITH=1, NTH
 1879 !
 1880         DO JSEA=1, NSEAL
 1881           CALL INIT_GET_ISEA(ISEA, JSEA)
 1882           IF (IKP0(JSEA).NE.0) THEN
 1883               ETX(JSEA) = ETX(JSEA) + A(ITH,IKP0(JSEA),JSEA)*ECOS(ITH)
 1884               ETY(JSEA) = ETY(JSEA) + A(ITH,IKP0(JSEA),JSEA)*ESIN(ITH)
 1885             END IF
 1886           END DO
 1887 !
 1888         END DO
 1889 !
 1890       DO JSEA=1, NSEAL
 1891         CALL INIT_GET_ISEA(ISEA, JSEA)
 1892         IF ( ABS(ETX(JSEA))+ABS(ETY(JSEA)) .GT. 1.E-7 .AND.           &
 1893              FP0(JSEA).NE.UNDEF )                                     &
 1894             THP0(JSEA) = ATAN2(ETY(JSEA),ETX(JSEA))
 1895         ETX(JSEA) = 0.
 1896         ETY(JSEA) = 0.
 1897         IKP1(JSEA) = MAX ( 1 , IKP1(JSEA) )
 1898         END DO
 1899 !
[...]
 3219                '     IOSTAT =',I5/)
 3220 !
 3221 !/
 3222 !/ End of W3IOGO ----------------------------------------------------- /
 3223 !/
 3224       END SUBROUTINE W3IOGO
 3225 !/
 3226 !/ ------------------------------------------------------------------- /
 3227       SUBROUTINE CALC_U3STOKES ( A , USS_SWITCH )
 3228 !/
 3229 !/                  +-----------------------------------+
 3230 !/                  | WAVEWATCH III           NOAA/NCEP |
 3231 !/                  |           H. L. Tolman            |
 3232 !/                  |                        FORTRAN 90 |
 3233 !/                  | Last update :         10-Jan-2017 |
 3234 !/                  +-----------------------------------+
 3235 !/
 3236 !/    10-Jan-2017 : Separate Stokes drift calculation  ( version 6.01 )
 3237 !/
 3238 !  1. Purpose :
 3239 !
 3240 !     This code is built for the purpose of outputting Stokes drift
 3241 !       related parameters that can be utilized to obtain full
 3242 !       Stokes drift profiles external to the wave model.
 3243 !
 3244 !     Option 1: USS_SWITCH == 1
 3245 !               This method is for outputing the Stokes drift frequency
 
 
                                                         w3iogomd.F90  page  60
 
 
 3246 !               spectrum for spectral frequency bands as defined by the
 3247 !               WW3 computation spectral frequency grid.
 3248 !               Output Quantity: Stokes drift frequency spectrum [m/s/Hz]
 3249 !                                X and Y componenets.
 3250 !
 3251 !     Option 2: USS_SWITCH == 2
 3252 !               This method is for outputing the surface Stokes drift
 3253 !               for a specified frequency partition/band of the
 3254 !               wave spectrum.  These partitions do not need to be
 3255 !               matched to WW3's computation spectral frequency grid,
 3256 !               and will rather sum the contributions of the WW3 bands
 3257 !               into the output partition.  The partitions are defined
 3258 !               in the ww3_grid.inp namelist section.
 3259 !               Output Quantity: Stokes drift surface velocity [m/s]
 3260 !                                X and Y components
 3261 !                                For each partition (up to 25).
 3262 !
 3263 !  3. Parameters :
 3264 !
 3265 !     Parameter list
 3266 !     ----------------------------------------------------------------
 3267 !       A       R.A.   I   Input spectra. Left in par list to change
 3268 !                          shape.
 3269 !      USS_SWITCH  I   I   Switch if computing US3D (spectral) or USSP
 3270 !                           (partitions)
 3271 !     ----------------------------------------------------------------
 3272 !
 3273 !  4. Subroutines used :
 3274 !
 3275 !     See module documentation.
 3276 !
 3277 !  5. Called by :
 3278 !
 3279 !      Name      Type  Module   Description
 3280 !     ----------------------------------------------------------------
 3281 !      W3WAVE    Subr. W3WAVEMD Actual wave model routine.
 3282 !     ----------------------------------------------------------------
 3283 !
 3284 !  6. Error messages :
 3285 !
 3286 !     None.
 3287 !
 3288 !  8. Structure :
 3289 !
 3290 !     See source code.
 3291 !
 3292 !  9. Switches :
 3293 !
 3294 !     !/SHRD  Switch for shared / distributed memory architecture.
 3295 !     !/DIST  Id.
 3296 !
 3297 !     !/C90   Cray FORTRAN 90 compiler directives.
 3298 !     !/NEC   NEC SXF90 compiler directives.
 3299 !     !/OMPG  OpenMP compiler directive for loop splitting.
 3300 !
 
 
                                                         w3iogomd.F90  page  61
 
 
 3301 !     !/S     Enable subroutine tracing.
 3302 !     !/T     Test output.
 3303 !
 3304 ! 10. Source code :
 3305 !
 3306 !/ ------------------------------------------------------------------- /
 3307       USE CONSTANTS, ONLY: TPIINV, GRAV, TPI
 3308       USE W3GDATMD,  ONLY: DDEN, DSII, XFR, SIG, NK, NTH, NSEAl,    &
 3309                            ECOS, ESIN, US3DF, USSPF, USSP_WN
 3310       USE W3ADATMD,  ONLY: CG, WN, DW
 3311       USE W3ADATMD,  ONLY: USSX, USSY,  US3D, USSP
 3312       USE W3ODATMD, ONLY: IAPROC, NAPROC
 3313 !
 3314       IMPLICIT NONE
 3315 !/
 3316 !/ ------------------------------------------------------------------- /
 3317 !/ Parameter list
 3318 !/
 3319       REAL, INTENT(IN)        :: A(NTH,NK,0:NSEAL)
 3320       INTEGER, INTENT(IN)     :: USS_SWITCH
 3321 !/
 3322 !/ ------------------------------------------------------------------- /
 3323 !/ Local parameters
 3324 !/
 3325       INTEGER                 :: IK, ITH, ISEA, JSEA
 3326       INTEGER                 :: IKST, IKFI, IB
 3327       REAL                    :: FACTOR, FKD,KD
 3328       REAL                    :: ABX(NSEAL), ABY(NSEAL), USSCO
 3329       REAL                    :: MINDIFF
 3330       INTEGER                 :: Spc2Bnd(NK)
 3331 !/
 3332 !/ ------------------------------------------------------------------- /
 3333 !/
 3334 !
 3335 ! 1.  Initialize storage arrays -------------------------------------- *
 3336 !
 3337 ! 2.  Integral over discrete part of spectrum ------------------------ *
 3338 !
 3339       !Two options ----------------------------------------------------|
 3340       ! USS_SWITCH == 1 -> Old option, Stokes drift integrated in same |
 3341       !                    wavenumber bands as model integrates.       |
 3342       ! USS_SWITCH == 2 -> New option, Stokes drift integrated in a    |
 3343       !                    defined number (NP) of user specified       |
 3344       !                    partitions, where NP and the frequency      |
 3345       !                    ranges for each partition can be user       |
 3346       !                    defined at run-time.                        |
 3347       !----------------------------------------------------------------|
 3348                                                                         
 3349       if (USS_SWITCH==1) then
 3350          IKST=US3DF(2)!Start at US3DF(2)
 3351          IKFI=US3DF(3)!End at US3DF(3)
 3352       ELSEif (USS_SWITCH==2) then
 3353          IKST=1  ! Start at 1
 3354          IKFI=NK ! End at NK
 3355       ENDIF
 
 
                                                         w3iogomd.F90  page  62
 
 
 3356            
 3357 ! Initialize US3D/USSP
 3358       IF (USS_SWITCH.eq.1) then
 3359          US3D(:,:)=0.0
 3360       ELSEIF (USS_SWITCH.eq.2) then
 3361          USSP(:,:)=0.0
 3362        ENDIF
 3363       DO IK=IKST,IKFI   !1, NK
 3364 !
 3365 ! 2.a Initialize energy in band
 3366 !
 3367          ABX    = 0.
 3368          ABY    = 0.
 3369          !
 3370 ! 2.b Integrate energy in band
 3371 !
 3372          DO ITH=1, NTH
 3373 !
 3374             DO JSEA=1, NSEAL
 3375                 ISEA         = JSEA
 3376                ABX(JSEA)  = ABX(JSEA) + A(ITH,IK,JSEA)*ECOS(ITH)
 3377                ABY(JSEA)  = ABY(JSEA) + A(ITH,IK,JSEA)*ESIN(ITH)
 3378             END DO
 3379 !
 3380          END DO
 3381 !
 3382 ! 2.c Finalize integration over band and update mean arrays
 3383 !
 3384          DO JSEA=1, NSEAL
 3385               ISEA         = JSEA
 3386             FACTOR       = DDEN(IK) / CG(IK,ISEA)
 3387 !
 3388 ! Deep water limits
 3389 !
 3390             KD    = MAX ( 0.001 , WN(IK,ISEA) * DW(ISEA) )
 3391             IF ( KD .LT. 6. ) THEN
 3392                FKD       = FACTOR / SINH(KD)**2
 3393                USSCO=FKD*SIG(IK)*WN(IK,ISEA)*COSH(2.*KD)
 3394             ELSE
 3395                USSCO=FACTOR*SIG(IK)*2.*WN(IK,ISEA)
 3396             END IF
 3397 !
 3398           !USSX(JSEA)  = USSX(JSEA) + ABX(JSEA)*USSCO
 3399           !USSY(JSEA)  = USSY(JSEA) + ABY(JSEA)*USSCO
 3400 !
 3401 ! Fills the 3D Stokes drift spectrum array or surface Stokes partitions
 3402 !
 3403             IF (USS_SWITCH==1) THEN
 3404                !Old method fills into WW3 bands
 3405                IF (IK.GE.US3DF(2).and.IK.LE.US3DF(3)) then
 3406                   US3D(JSEA,IK)    =  ABX(JSEA)*USSCO/(DSII(IK)*TPIINV)
 3407                   US3D(JSEA,NK+IK) =  ABY(JSEA)*USSCO/(DSII(IK)*TPIINV)
 3408                ENDIF
 3409             ELSEIF (USS_SWITCH==2) THEN
 3410                ! Match each spectral component to the nearest partition
 
 
                                                         w3iogomd.F90  page  63
 
 
 3411                MINDIFF=1.e8
 3412                Spc2BND(IK) = 1
 3413                MINDIFF=abs(USSP_WN(1)-WN(IK,ISEA))
 3414                DO IB=2,USSPF(2)
 3415                   IF (MinDiff .gt. abs(USSP_WN(IB)-WN(IK,ISEA))) then
 3416                      Spc2BND(IK) = IB
 3417                      MinDiff = abs(USSP_WN(IB)-WN(IK,ISEA))
 3418                   ENDIF
 3419                ENDDO
 3420                !Put spectral energey into whichever band central wavenumb>
 3421                USSP(JSEA,Spc2Bnd(IK))    =  USSP(JSEA,Spc2Bnd(IK)) + ABX(>
 3422                USSP(JSEA,NK+Spc2BND(IK)) =  USSP(JSEA,NK+Spc2Bnd(IK)) + A>
 3423             ENDIF
 3424          END DO
 3425       END DO
 3426 !
 3427       RETURN
 3428 !
 3429 !/ End of CALC_U3STOKES
 3430 !----------------------------------------------------- /
 3431 !/
 3432       END SUBROUTINE CALC_U3STOKES
 3433 !/
 3434 !/ ------------------------------------------------------------------- /
 3435       SUBROUTINE CALC_WBT (A)
 3436 !/
 3437 !/                  +-----------------------------------+
 3438 !/                  | WAVEWATCH III           NOAA/NCEP |
 3439 !/                  |           Q. Liu                  |
 3440 !/                  |                        FORTRAN 90 |
 3441 !/                  | Last update :         24-Aug-2018 |
 3442 !/                  +-----------------------------------+
 3443 !/
 3444 !/    24-Aug-2018 : Origination.                       ( version 6.06 )
 3445 !/
 3446 !  1. Purpose :
 3447 !
 3448 !     Estimate the dominant wave breaking probability b_T based on
 3449 !     the empirical parameterization proposed by Babanin et al. (2001).
 3450 !     From their Fig. 12, we have
 3451 !
 3452 !         b_T = 85.1 * [(p - 0.055) * (1 + H_s/d)]^2.33,
 3453 !
 3454 !     where  is the significant steepness of the spectral peak, H_s is
 3455 !     the significant wave height, d is the water depth.
 3456 !
 3457 !     For more details, please see
 3458 !         Banner et al.  2000: JPO,      30,  3145 -  3160.
 3459 !         Babanin et al. 2001: JGR, 106(C6), 11569 - 11676.
 3460 !
 3461 !  2. Method :
 3462 !
 3463 !  3. Parameters :
 3464 !
 3465 !     Parameter list
 
 
                                                         w3iogomd.F90  page  64
 
 
 3466 !     ----------------------------------------------------------------
 3467 !       A       R.A.   I   Input wave action spectra N(j, , k)
 3468 !     ----------------------------------------------------------------
 3469 !
 3470 !  4. Subroutines used :
 3471 !
 3472 !  5. Called by :
 3473 !
 3474 !      Name      Type  Module   Description
 3475 !     ----------------------------------------------------------------
 3476 !      W3OUTG    Subr. Public   Calculate mean parameters.
 3477 !     ----------------------------------------------------------------
 3478 !
 3479 !  6. Error messages :
 3480 !
 3481 !     None.
 3482 !
 3483 !  8. Structure :
 3484 !
 3485 !     See source code.
 3486 !
 3487 !  9. Switches :
 3488 !
 3489 !     !/S     Enable subroutine tracing.
 3490 !     !/T     Test output.
 3491 !
 3492 ! 10. Source code :
 3493 !
 3494 !/ ------------------------------------------------------------------- /
 3495       USE W3DISPMD, ONLY: WAVNU1
 3496       USE W3ADATMD, ONLY: U10, U10D, WBT
 3497       USE W3ADATMD, ONLY: CG, WN, DW
 3498       USE W3GDATMD, ONLY: NK, NTH, NSEAL, SIG, ESIN, ECOS, DTH, DSII, &
 3499                           FTE, XFR, MAPSF, MAPSTA, DMIN
 3500       USE W3GDATMD, ONLY: BTBETA
 3501       USE W3PARALL, ONLY: INIT_GET_ISEA
 3502 !
 3503       IMPLICIT NONE
 3504 !
 3505 !/ ------------------------------------------------------------------- /
 3506 !/ Parameter list
 3507 !/
 3508       REAL, INTENT(IN)     :: A  (NTH, NK, 0:NSEAL)
 3509 !/
 3510 !/ ------------------------------------------------------------------- /
 3511 !/ Local parameters
 3512 !/
 3513 !
 3514       INTEGER              :: FPOPT = 0
 3515 !
 3516       INTEGER              :: IK, ITH, ISEA, JSEA, IKM, IKL, IKH, IX, IY
 3517       REAL                 :: TDPT, TU10, TUDIR, SINU, COSU, TC, TFORCE
 3518       REAL                 :: ESIG(NK) ! E()
 3519       REAL                 :: FACTOR, ET, HS, ETP, HSP, SIGP, KP, &
 3520                               CGP, WSTP
 
 
                                                         w3iogomd.F90  page  65
 
 
 3521       REAL                 :: XL, XH, XL2, XH2, EL, EH, DENOM
 3522       REAL                 :: TWBT
 3523 !/
 3524 !/ ------------------------------------------------------------------- /
 3525 !/
 3526 !
 3527       DO JSEA = 1, NSEAL
 3528 ! JSEA 2 ISEA
 3529           CALL INIT_GET_ISEA(ISEA, JSEA)
 3530 !
 3531 ! check the status of this grid point [escape if this point is excluded]
 3532 !
 3533           IX = MAPSF(ISEA,1)
 3534           IY = MAPSF(ISEA,2)
 3535           IF ( MAPSTA(IY,IX) .LE. 0 ) CYCLE
 3536 !
 3537 ! Wind info. is required to select wind sea partition from the wave
 3538 ! spectrum. Two wind velocities are availabe:
 3539 ! - U10 & U10D   (w3adatmd)
 3540 ! - UST & USTDIR (w3wdatmd)
 3541 !     * U10D & USTDIR are not really the same when swell are present.
 3542 !
 3543 ! Following Janssen et al. (1989) and Bidlot (2001), spectral components
 3544 ! are considered to be subject to local wind forcing when
 3545 !
 3546 !          c / [U cos( - )] < ,
 3547 !
 3548 ! where c is the phase velocity c = /k,  is the wind direction, U is
 3549 ! the wind speed U10, (sometimes approximated by U10 28 * ust),  is
 3550 ! the constant forcing parameter with  [1.0, 2.0]. By default, we use
 3551 !  = 1.2(Bidlot 2001).
 3552 !
 3553           TDPT  = MAX(DW(ISEA), DMIN)          ! water depth d
 3554           TU10  = U10(ISEA)                    ! wind velocity U10
 3555           TUDIR = U10D(ISEA)                   ! wind direction  (rad)
 3556           SINU  = SIN(TUDIR)                   ! sin
 3557           COSU  = COS(TUDIR)                   ! cos
 3558 !
 3559           ESIG  = 0.                           ! E()
 3560           ET    = 0.                           ! E()
 3561           ETP   = 0.                           ! E() at peak only
 3562 !
 3563           DO IK = 1, NK
 3564               TC     = SIG(IK) / WN(IK, ISEA)  ! phase velocity c=/k
 3565               FACTOR = SIG(IK) / CG(IK, ISEA)  !  / cg
 3566               FACTOR = FACTOR * DTH            !  / cg * 
 3567 !
 3568               DO ITH = 1, NTH
 3569                   TFORCE = TC - TU10 * (COSU*ECOS(ITH)+SINU*ESIN(ITH)) &
 3570                                * BTBETA
 3571                                        
 3572                   IF (TFORCE .LT. 0.) THEN ! wind sea component
 3573                       ESIG(IK) = ESIG(IK) + A(ITH, IK, JSEA) * FACTOR
 3574                   ENDIF
 3575               ENDDO ! ITH
 
 
                                                         w3iogomd.F90  page  66
 
 
 3576 !
 3577           ENDDO ! IK
 3578 !
 3579 ! ESIG is E() of the wind sea after filtration of any background swell.
 3580 ! Now we need to get Hs & p for the wind sea spectrum.
 3581 ! FTE    = 0.25 * SIG(NK) * DTH * SIG(NK) [ww3_grid.ftn]
 3582 !
 3583           ET = SUM(ESIG * DSII)
 3584           ET = ET + ESIG(NK) * FTE / (DTH * SIG(NK))  ! FTE: add tail
 3585           HS = 4. * SQRT(MAX(0., ET))                 ! Hs
 3586 !
 3587 ! Get p from E()
 3588 !
 3589 ! Here we have tried three different ways to calculate FP:
 3590 !
 3591 ! FPOPT = 0: fp defined by Young (1999, p. 239)
 3592 ! FPOPT = 1: parabolic fit around the discrete peak frequency, as used
 3593 !            by ww3_outp
 3594 ! FPOPT = 2: discrete peak frequency
 3595 !
 3596 ! When the discrete peak frequency is used:
 3597 ! * For XFR = 1.1, the **discrete** peak region [0.7p, 1.3p] will be
 3598 !     {0.75, 0.83, 0.91, 1., 1.1, 1.21, 1.33}p,
 3599 ! * and for XFR = 1.07, the **discrete** peak region becomes
 3600 !     {0.71, 0.76, 0.82, 0.87, 0.93, 1., 1.07, 1.14, 1.23, 1.31}p.
 3601 !
 3602 ! Thus, a good approximation to the range [0.7p, 1.3p] is guranteed
 3603 ! by each XFR. I however found using the discrete peak frequency yielded
 3604 ! step-wise results. According to my test, the smoothest results were
 3605 ! obtained with FPOPT = 0. For simplicity, the  values (DSII) are
 3606 ! not modified.
 3607 !
 3608           IKM   = MAXLOC(ESIG, 1)                     ! index for p
 3609 !
 3610           IF (FPOPT .EQ. 0) THEN
 3611 !             FP defined in Ian's book
 3612               SIGP = SUM(ESIG**4. * SIG(1:NK) * DSII) /  &
 3613                          MAX(1E-10, SUM(ESIG**4. * DSII))
 3614 !
 3615           ELSE IF (FPOPT .EQ. 1) THEN
 3616 !             Parabolic fit around the discrete peak (ww3_outp.ftn)
 3617               XL    = 1./XFR - 1.
 3618               XH    = XFR - 1.
 3619               XL2   = XL**2.
 3620               XH2   = XH**2.
 3621               IKL   = MAX (  1 , IKM-1 )
 3622               IKH   = MIN ( NK , IKM+1 )
 3623               EL    = ESIG(IKL) - ESIG(IKM)
 3624               EH    = ESIG(IKH) - ESIG(IKM)
 3625               DENOM = XL*EH - XH*EL
 3626               SIGP  = SIG(IKM) * (1. + 0.5 * ( XL2*EH - XH2*EL) &
 3627                           / SIGN (MAX(ABS(DENOM), 1.E-15), DENOM)) ! p
 3628 !
 3629           ELSE IF (FPOPT .EQ. 2) THEN
 3630 !             Discrete peak (Give stepwise results, not used by default)
 
 
                                                         w3iogomd.F90  page  67
 
 
 3631               SIGP  = SIG(IKM)
 3632           ENDIF
 3633 !
 3634 ! kp from p (linear dispersion)
 3635 !
 3636 ! N(k, ) at first step is zero   p=0  floating divided by zero >
 3637           IF (SIGP < 1E-6) SIGP = SIG(NK)     ! Hsp & b_T will be still 0.
 3638 !
 3639           CALL WAVNU1 (SIGP, TDPT, KP, CGP)
 3640 !
 3641 !                         { /1.3p         }1/2
 3642 ! peak wave height Hp = 4 { |      E() d }
 3643 !                         { /0.7p         }
 3644 !
 3645           DO IK = 1, NK
 3646               IF ( (SIG(IK) >= 0.7 * SIGP) .AND. &
 3647                    (SIG(IK) <= 1.3 * SIGP) ) THEN
 3648                   ETP = ETP + ESIG(IK) * DSII(IK)
 3649               ENDIF
 3650           ENDDO ! IK
 3651           HSP = 4. * SQRT(MAX(0., ETP))
 3652 !
 3653 ! significant steepness of the peak region p
 3654 !
 3655           WSTP = 0.5 * KP * HSP
 3656 !
 3657 ! Dominant wave breaking b_T
 3658 !
 3659           TWBT = 85.1 * (MAX(0.0, WSTP - 0.055) * (1 + HS/TDPT))**2.33
 3660           WBT(JSEA) = MIN(1.0, TWBT)
 3661 !
 3662       ENDDO ! JSEA
 3663 !/
 3664 !/ End of  CALC_WBT -------------------------------------------------- /
 3665 !/
 3666       END SUBROUTINE CALC_WBT
 3667 !/ ------------------------------------------------------------------- /
 3668       END MODULE W3IOGOMD
------------
ftn -c -module /home/luciano.pezzi/COAWST.V3.7/WW3/model/mod -g -i4 -r4 -Kieee -byteswapio -O3  -O3 -I/home/luciano.pezzi/COAWST.V3.7/WW3/model/mod_MPI -I/home/luciano.pezzi/COAWST.V3.7/Lib/MCT/pgi/include -I/home/luciano.pezzi/COAWST.V3.7//WRF/main -I/home/luciano.pezzi/COAWST.V3.7//WRF/external/esmf_time_f90 -I/home/luciano.pezzi/COAWST.V3.7//WRF/frame -I/home/luciano.pezzi/COAWST.V3.7//WRF/share -I/home/luciano.pezzi/COAWST.V3.7/Lib/MCT/pgi/include -I/home/luciano.pezzi/COAWST.V3.7/Build -I/home/luciano.pezzi/COAWST.V3.7/WW3/model/ftn  
------------
------------
------------
