                                                         w3strkmd.F90  page   1
 
 
    1 #include "w3macros.h"
    2 !/ ------------------------------------------------------------------- /
    3       MODULE W3STRKMD
    4 !/
    5 !/                  +-----------------------------------+
    6 !/                  | WAVEWATCH III           NOAA/NCEP |
    7 !/                  |     A. J. van der Westhuysen      |
    8 !/                  |            Jeff Hanson            |
    9 !/                  |        Eve-Marie Devaliere        |
   10 !/                  |                        FORTRAN 95 |
   11 !/                  | Last update :         03-Mar-2016 |
   12 !/                  +-----------------------------------+
   13 !/
   14 !/    03-Feb-2012 : Origination, based on Matlab code   ( version 4.05 )
   15 !/                  by Jeff Hanson & Eve-Marie Devaliere
   16 !/    04-Jan-2013 : Inclusion in trunk                  ( version 4.08 )
   17 !/    29-Nov-2013 : Remove DOC control characters,
   18 !/                  update MPI! to MPI/! (H. L. Tolman). ( version 4.15 )
   19 !/    26-Sep-2016 : Optimization updates (A. van der Westhuysen)
   20 !/                                                      ( version 5.15 )
   21 !/    03-Mar-2016 : Optimization updates for INTERSECT,
   22 !/                  UNION, UNIQUE, SORT, SETDIFF, FINDIJ
   23 !/                  (S. Zieger, BoM Australia)          ( version 5.16 )
   24 !/
   25 !/    Copyright 2009-2013 National Weather Service (NWS),
   26 !/       National Oceanic and Atmospheric Administration.  All rights
   27 !/       reserved.  WAVEWATCH III is a trademark of the NWS.
   28 !/       No unauthorized use without permission.
   29 !/
   30       IMPLICIT NONE
   31 !
   32 !  1. Purpose :
   33 !
   34 !     Module containing data structures and subroutines for spatial and
   35 !     temporal tracking (part of wave partitioning).
   36 !
   37 !  2. Method :
   38 !
   39 !     Read raw partitioning data.
   40 !     Perform tracking in space.
   41 !     Perform tracking in time.
   42 !
   43 !  3. Variables and types :
   44 !
   45 !     NOTE: In Fortran 90/95 derived types cannot contain allocatable arr>
   46 !           The same functionality is achieved here using pointers (point>
   47 !           to unnamed allocatable arrays). Can be replaced by allocatabl>
   48 !           when transitioning to the Fortran 2003 standard.
   49 !
   50 !     Name    Type       Description
   51 !     ----------------------------------------------------------------
   52 !     param   Der. type  structure of basic spectrally partitioned result>
   53 !     hs      Real arr   array of sign. wave height partitions
   54 !     tp      Real arr   array of peak period partitions
   55 !     dir     Real arr   array of mean direction partitions
 
 
                                                         w3strkmd.F90  page   2
 
 
   56 !     dspr    Real arr   array of mean directional spread (one-sided) of >
   57 !     wf      Real arr   array of wind fraction
   58 !     ipart   Int arr    array of partition indices
   59 !     sys     Int arr    array of system indices to which a given partiti>
   60 !     ngbrSys Int arr    array of system indices of neighboring grid poin>
   61 !     checked    Int      0 = geo point not checked yet (in SUBROUTINE fi>
   62 !                         1 = geo point has been checked
   63 !                        -1 = geo land point (i.e. no partitioning data f>
   64 !                        -2 = geo land point, second passing.
   65 !
   66       TYPE param
   67          REAL    :: hs(10)
   68          REAL    :: tp(10)
   69          REAL    :: dir(10)
   70          REAL    :: dspr(10)
   71 !         REAL    :: wf(10)
   72          INTEGER :: ipart(10)
   73          INTEGER :: sys(10)
   74          INTEGER :: ngbrSys(50)
   75          INTEGER :: checked
   76       END TYPE param
   77 !
   78 !     wind    Der. type     structure containing wind-related parameters
   79 !     wdir       Real       wind direction at grid point (Nautical or Car>
   80 !     wspd       Real       wind speed at grid point
   81 !
   82       TYPE wind
   83          REAL    :: wdir
   84          REAL    :: wspd
   85       END TYPE wind
   86 !
   87 !     dat2d   Der. type     2d data structure for storing raw partitioned>
   88 !     lat     Real arr      2d array of latitudes of input partitioned da>
   89 !     lon     Real arr      2d array of longitudes of input partitioned d>
   90 !     par  type(param) arr  2d array of partitioned parameter structures
   91 !     wnd  type(wind) arr   2d array of wind parameter structures
   92 !     maxi    Int           size of 2d array of raw partitioned data in i>
   93 !     maxj    Int           size of 2d array of raw partitioned data in j>
   94 !
   95       TYPE dat2d
   96          REAL*8               :: date
   97          REAL, POINTER        :: lat(:,:)
   98          REAL, POINTER        :: lon(:,:)
   99          TYPE(param), POINTER :: par(:,:)
  100          TYPE(wind), POINTER  :: wnd(:,:)
  101          INTEGER              :: maxi
  102          INTEGER              :: maxj
  103       END TYPE dat2d
  104 !
  105 !     neighbr  Der. type    structure for storing data of neighboring gri>
  106 !     par     type(param)   partitioned parameter structure at neighborin>
  107 !     i          Int        i index of neighboring grid point
  108 !     j          Int        j index of neighboring grid point
  109 !
  110       TYPE neighbr
 
 
                                                         w3strkmd.F90  page   3
 
 
  111          TYPE(param) :: par
  112          INTEGER     :: i
  113          INTEGER     :: j
  114       END TYPE neighbr
  115 !
  116 !     mtchsys  Der. type    structure for storing data of matched systems
  117 !     sysVal   Int arr      array of indices of matched systems
  118 !     tpVal    Real arr     array of peak period values of matched systems
  119 !     wfVal    Real arr     array of wind fraction values of matched syst>
  120 !
  121       TYPE mtchsys
  122          INTEGER     :: sysVal(50)
  123          REAL        :: tpVal(50)
  124          REAL        :: dirVal(50)
  125          REAL        :: hsVal(50)
  126 !         REAL        :: wfVal(50)
  127       END TYPE mtchsys
  128 !
  129 !     system   Der. type    structure for storing spatially tracked syste>
  130 !     hs       Real arr     sign wave height field assoc with wave system>
  131 !     tp       Real arr     peak period field assoc with wave system (in >
  132 !     dir      Real arr     mean direction field assoc with wave system (>
  133 !     dspr     Real arr     mean directional spread field assoc with wave>
  134 !     wf       Real arr     wind fraction assoc with wave system (in 1d a>
  135 !     i        Int arr      i index of geo grid point in wave system (in >
  136 !     j        Int arr      j index of geo grid point in wave system (in >
  137 !     lat      Real arr     latitudes of grid point in wave system (in 1d>
  138 !     lon      Real arr     longitudes of grid point in wave system (in 1>
  139 !     sysInd   Int          index of current wave system
  140 !     hsMean   Real         spatial mean sign wave height of current wave>
  141 !     tpMean   Real         spatial mean peak period of current wave syst>
  142 !     dirMean  Real         spatial mean wave direction of current wave s>
  143 !     wfMean   Real         spatial mean wind fraction of current wave sy>
  144 !     nPoints  Int          total number of grid points in current wave s>
  145 !     ngbr     Int arr      indices of neighboring wave systems
  146 !     grp      Int          time-tracked group that system is assigned to
  147 !
  148       TYPE system
  149          REAL, POINTER    :: hs(:)
  150          REAL, POINTER    :: tp(:)
  151          REAL, POINTER    :: dir(:)
  152          REAL, POINTER    :: dspr(:)
  153 !         REAL, POINTER    :: wf(:)
  154          INTEGER, POINTER :: i(:)
  155          INTEGER, POINTER :: j(:)
  156          INTEGER, POINTER :: indx(:)
  157          REAL, POINTER    :: lat(:)
  158          REAL, POINTER    :: lon(:)
  159          INTEGER          :: sysInd
  160          REAL             :: hsMean
  161          REAL             :: tpMean
  162          REAL             :: dirMean
  163 !         REAL             :: wfMean
  164          INTEGER          :: nPoints
  165          INTEGER          :: ngbr(1000)
 
 
                                                         w3strkmd.F90  page   4
 
 
  166          INTEGER          :: grp
  167       END TYPE system
  168 !
  169 !     timsys   Der. type     structure for storing time-tracked systems (>
  170 !     sys  type(system) arr  array of all spatially+temporally tracked sy>
  171 !                            time level
  172 !
  173       TYPE timsys
  174          TYPE(system), POINTER :: sys(:)
  175       END TYPE timsys
  176 !
  177 !     sysmemory  Der. type   Structure to store key characteristics of sy>
  178 !                            time levels. Used during the time tracking r>
  179 !
  180       TYPE sysmemory
  181          INTEGER :: grp
  182          INTEGER :: nPoints
  183          INTEGER, POINTER :: indx(:)
  184          INTEGER :: updated
  185          INTEGER :: length
  186          REAL    :: lonMean
  187          REAL    :: latMean
  188          REAL    :: tpMean
  189          REAL    :: dirMean
  190       END TYPE sysmemory
  191 !
  192 !  4. Subroutines and functions used :
  193 !
  194 !     a. Main subroutines for spatial/temporal tracking:
  195 !
  196 !     waveTracking_NWS_V2  main subroutine of spatial and temporal tracki>
  197 !     spiralTrackV3        performs the spatial spiral tracking for a giv>
  198 !     timeTrackingV2       performs the time tracking of all wave systems
  199 !
  200 !     b. Auxiliary subroutines and functions for tracking:
  201 !
  202 !     findWay              find direction and no. steps in spatial search>
  203 !     findNext             find next point on spatial search spiral
  204 !     findSys              find all neighboring wave systems for given gr>
  205 !     combineWaveSystems   combine wave systems, then remove small and lo>
  206 !     printFinalSys        output the final output systems for this time >
  207 !     combineSys           combine wave systems
  208 !     combinePartitionsV2  combine two partitions that have been assigned>
  209 !     func. mean_angleV2   compute the mean direction from array of direc>
  210 !     findIJV4             Find indices of system "a" that lie over or ne>
  211 !
  212 !     c. Simple data manipulation (based on Matlab intrinsic functions):
  213 !
  214 !     UNIQUE               removes duplicate reals from an vector
  215 !     SORT                 sorts the vector in ascending or descending or>
  216 !     SETDIFF              returns elements in vector1 that are not in ve>
  217 !     INTERSECT            returns elements that are mutual in vector1 an>
  218 !     UNION                returns the union of vector1 and vector2
  219 !     func. LENGTH         finds no. of indices in vector not filled with>
  220 !     func. FINDFIRST      returns index of first instance of a search va>
 
 
                                                         w3strkmd.F90  page   5
 
 
  221 !     func. STD            computes standard deviation
  222 !
  223 !  5. Called by :
  224 !
  225 !     WW3_SYSTRK (main program)
  226 !
  227 !  6. Error messages :
  228 !
  229 !  7. Remarks :
  230 !
  231 !  8. Structure :
  232 !
  233 !     The structure of the tracking algorithm is the following
  234 !     (parentheses indicate minor subroutines and functions):
  235 !
  236 !     +---- SUBROUTINE waveTracking_NWS_V2       main subroutine of spati>
  237 !     |        (CALL UNIQUE)                     removes duplicate reals >
  238 !     |        CALL spiralTrackV3                See below
  239 !     |        CALL timeTrackingV2               See below
  240 !     |
  241 !     +---+--- SUBROUTINE spiralTrackV3          performs the spatial spi>
  242 !     |   |       CALL findWay                   find direction and no. s>
  243 !     |   |       CALL findNext                  find next point on spati>
  244 !     |   |       CALL findSys                   See below
  245 !     |   |       CALL combineWaveSystems        See below
  246 !     |   |
  247 !     |   +------ SUBROUTINE findSys             find all neighboring wav>
  248 !     |   |          (CALL UNIQUE)
  249 !     |   |          CALL combinePartitionsV2    combine two partitions t>
  250 !     |   |
  251 !     |   +---+-- SUBROUTINE combineWaveSystems  combine wave systems, th>
  252 !     |       |      CALL printFinalSys          See below
  253 !     |       |      CALL combineSys             See below
  254 !     |       |
  255 !     |       +----- SUBROUTINE printFinalSys    output the final output >
  256 !     |       |         (CALL UNIQUE)
  257 !     |       |         (CALL SETDIFF)           returns elements in vect>
  258 !     |       |         (CALL SORT)              sorts the vector in asce>
  259 !     |       |
  260 !     |       +----- SUBROUTINE combineSys       combine wave systems
  261 !     |                 (CALL SORT)
  262 !     |                 (CALL UNIQUE)
  263 !     |                 (CALL UNION)             returns the union of vec>
  264 !     |                 (CALL SETDIFF)
  265 !     |                 CALL findIJV4            Find indices of system ">
  266 !     |                 CALL combinePartitionsV2
  267 !     |
  268 !     +------- SUBROUTINE timeTrackingV2         performs the time tracki>
  269 !                 (CALL SORT)
  270 !                 (CALL SETDIFF)
  271 !
  272 !  9. Switches :
  273 !
  274 !       !/SHRD  Switch for shared / distributed memory architecture.
  275 !       !/MPI   Id.
 
 
                                                         w3strkmd.F90  page   6
 
 
  276 !
  277 ! 10. Source code :
  278 !
  279 !/ ------------------------------------------------------------------- /
  280 !/
  281       CONTAINS
  282 !/ ------------------------------------------------------------------- /
  283       SUBROUTINE waveTracking_NWS_V2 (intype     ,tmax       , &
  284                                       tcur       ,filename   , &
  285                                       tstart     ,tend       , &
  286                                       dt         ,ntint      , &
  287                                       minlon     ,maxlon     , &
  288                                       minlat     ,maxlat     , &
  289                                       mxcwt      ,mycwt      , &
  290                                       dirKnob    ,             &
  291                                       perKnob    ,hsKnob     , &
  292                                       wetPts     ,seedLat    , &
  293                                       seedLon    ,dirTimeKnob, &
  294                                       tpTimeKnob ,paramFile  , &
  295                                       sysA       ,wsdat      , &
  296                                       maxSys     ,maxGroup   )
  297 !/
  298 !/                  +-----------------------------------+
  299 !/                  | WAVEWATCH III           NOAA/NCEP |
  300 !/                  |     A. J. van der Westhuysen      |
  301 !/                  |            Jeff Hanson            |
  302 !/                  |        Eve-Marie Devaliere        |
  303 !/                  |                        FORTRAN 95 |
  304 !/                  | Last update :          4-Jan-2013 |
  305 !/                  +-----------------------------------+
  306 !/
  307 !/    03-Feb-2012 : Origination, based on Matlab code   ( version 4.05 )
  308 !/                  by Jeff Hanson & Eve-Marie Devaliere
  309 !/    04-Jan-2013 : Inclusion in trunk                  ( version 4.08 )
  310 !/
  311 !/    Copyright 2009-2013 National Weather Service (NWS),
  312 !/       National Oceanic and Atmospheric Administration.  All rights
  313 !/       reserved.  WAVEWATCH III is a trademark of the NWS.
  314 !/       No unauthorized use without permission.
  315 !/
  316       IMPLICIT NONE
  317 !
  318 !  1. Purpose :
  319 !
  320 !     Main subroutine of spatial and temporal tracking algorithm
  321 !
  322 !  2. Method
  323 !
  324 !     (1) Read the raw partitioning output from one of two file formats:
  325 !         (a) "partRes" format of IFP-SWAN (intype=1), or
  326 !         (b) WW3 spectral bulletin format (intype=2).
  327 !         If intype=0, the partition data is read from memory (not activa>
  328 !
  329 !     (2) Perform tracking in space by calling subroutine spiralTrackV3
  330 !     (3) Perform tracking in time by calling subroutine timeTrackingV2
 
 
                                                         w3strkmd.F90  page   7
 
 
  331 !
  332 !  3. Parameters :
  333 !
  334 !     Parameter list
  335 !     ----------------------------------------------------------------
  336 !     intype         Int       input  For coupling: Type of input (0 = me>
  337 !     tmax           Int       input  For coupling: Value of maxTs to app>
  338 !     tcur           Int       input  For coupling: Index of current time>
  339 !     filename       Char      input  File name of locally partitioned da>
  340 !     tstart         Char      input  Start time in raw partition file (i>
  341 !     tend           Char      input  End time in raw partition file (if >
  342 !     minlon         Real      input  Lower lon boundary of domain to be >
  343 !     maxlon         Real      input  Upper lon boundary of domain to be >
  344 !     minlat         Real      input  Lower lat boundary of domain to be >
  345 !     maxlat         Real      input  Upper lat boundary of domain to be >
  346 !     dirKnob        Real      input  Parameter in direction for combinin>
  347 !     perKnob        Real      input  Parameter in period for combining f>
  348 !     hsKnob         Real      input  Parameter in wave height for purgin>
  349 !     wetPts         Real      input  Percentage of wet points for purgin>
  350 !     seedLat        Real      input  Start Lat for tracking spiral (if =>
  351 !     seedLon        Real      input  Start Lon for tracking spiral (if =>
  352 !     dirTimeKnob    Real      input  Parameter in direction for combinin>
  353 !     tpTimeKnob     Real      input  Parameter in period for combining f>
  354 !     paramFile      Char      input  File name of partitioning parameters
  355 !     sys         TYPE(timsys) output Final set of spatially and temporal>
  356 !     wsdat       TYPE(dat2d)  output Final version of 2D (gridded) parti>
  357 !     maxGroup       Int       output Maximum number of wave systems ("gr>
  358 !
  359       CHARACTER    :: filename*50, paramFile*32
  360       REAL         :: dirKnob, perKnob, hsKnob, wetPts, seedLat, &
  361                       seedLon, dirTimeKnob, tpTimeKnob
  362       REAL*8       :: tstart, tend
  363       INTEGER      :: maxGroup, intype, tmax, tcur, ntint
  364       INTEGER, POINTER :: maxSys(:)
  365       TYPE(dat2d), POINTER :: wsdat(:)
  366       TYPE(timsys), POINTER :: sysA(:), sysAA(:)
  367       INTEGER      :: NumConsSys, iConsSys
  368       REAL         :: dt
  369       REAL         :: minlon, maxlon, minlat, maxlat
  370       INTEGER      :: mxcwt, mycwt
  371                                   
  372 !     Note: Variables wsdat, sysA and maxSys have IN/OUT intent so that t>
  373 !     can be manipulated outside of this subroutine, e.g. re-indexing of
  374 !     systems and groups during the simulation.
  375       INTENT (IN)  intype, tmax, tcur, filename, paramFile, &
  376                    minlon, maxlon, minlat, maxlat, &
  377                    hsKnob, wetPts, seedLat, seedLon, &
  378                    dirKnob, perKnob, dirTimeKnob, tpTimeKnob
  379       INTENT (OUT) maxGroup
  380 !      INTENT (IN OUT) wsdat, sysA, maxSys
  381 !
  382 !     Local variables
  383 !     ----------------------------------------------------------------
  384 !     llat     Real    Latitude of partition point, from input file
  385 !     llon     Real    Longitude of partition point, from input file
 
 
                                                         w3strkmd.F90  page   8
 
 
  386 !     ts       Real    Time step of partition, from input file
  387 !     hs0      Real    Wave height of partition, from input file
  388 !     tp0      Real    Peak period of partition, from input file
  389 !     dir0     Real    Mean direction of partition, from input file
  390 !     dspr0    Real    Mean directional spread of partition, from input f>
  391 !     wf0      Real    wind fraction of partition, from input file (remov>
  392 !     wndSpd0  Real    Wind speed of partition, from input file
  393 !     wndDir0  Real    Wind direction of partition, from input file
  394 !     wndFce0  Real    Wind force of partition, from input file (not, use>
  395 !     tss      Int.    Time step counter
  396 !     t0       Int     Index of first time step to compute
  397 !
  398       LOGICAL                :: file_exists, FLFORM, LOOP
  399       LOGICAL                :: testout
  400       PARAMETER (testout = .FALSE.)
  401       CHARACTER              :: dummy*10, dummyc*12
  402       CHARACTER(LEN=10)      :: VERPRT
  403       CHARACTER(LEN=35)      :: IDSTR
  404       CHARACTER(LEN=78)      :: headln1
  405       CHARACTER(LEN=51)      :: headln2
  406       INTEGER                :: line
  407       INTEGER, ALLOCATABLE   :: ts(:), tmp_i4(:)
  408       REAL, ALLOCATABLE      :: llat(:),llon(:),hs0(:), &
  409                                 tp0(:),dir0(:),dspr0(:),&
  410                                 wndSpd0(:),wndDir0(:)
  411       REAL*8, ALLOCATABLE :: date0(:),tmp_r8(:)
  412       INTEGER    :: maxTs, t0, nout1, nout2, maxI, maxJ
  413       REAL, ALLOCATABLE :: mlon(:,:), mlat(:,:), tmp_r4(:)
  414       REAL, POINTER :: uniqueTim(:),uniqueLatraw(:),uniqueLonraw(:), &
  415                        uniqueLat(:),uniqueLon(:)
  416       INTEGER    :: ioerr,ierr, i, j, k, l, alreadyIn, ok, tss, tsA
  417       INTEGER    :: maxPart, DATETIME(2)
  418       INTEGER    :: tstep, iline, numpart, skipln, readln, filesize
  419       REAL       :: x,y,wnd,wnddir
  420       REAL       :: invar1, invar2, invar3, invar4
  421       REAL       :: invar5, invar6, invar7
  422       REAL, ALLOCATABLE :: phs(:),ptp(:),pdir(:),pspr(:),pwf(:) ! current>
  423       REAL*8     :: date1, date2, ttest, ttemp
  424       INTEGER    :: ic, leng, maxpartout                                 >
  425       REAL       :: dx
  426       INTEGER    :: latind1, latind2, lonind1, lonind2
  427       REAL       :: lonext, latext
  428                                   
  429 !
  430 !  4. Subroutines used :
  431 !
  432 !      Name      Type  Module   Description
  433 !     ----------------------------------------------------------------
  434 !      UNIQUE
  435 !      spiralTrackV3
  436 !      timeTrackingV2
  437 !
  438 !  5. Subroutines calling
  439 !
  440 !      WW3_SYSTRK (main program)
 
 
                                                         w3strkmd.F90  page   9
 
 
  441 !
  442 !  6. Error messages :
  443 !
  444 !  7. Remarks :
  445 !
  446 !  8. Structure :
  447 !
  448 !     See above
  449 !
  450 !  9. Switches :
  451 !
  452 !     None defined yet.
  453 !
  454 ! 10. Source code :
  455 !
  456 !/ ------------------------------------------------------------------- /
  457                                                                         
  458       NULLIFY( sysA )
  459       NULLIFY( maxSys )
  460                        
  461 !     Select input type for raw partitioning data
  462       IF ((intype.EQ.1).OR.(intype.EQ.2)) THEN
  463 !        Raw partitioning data is coming from an input file.
  464 !        Read file here, and set up 2d array wsdat with the data.
  465          t0 = 1
  466          IF (intype.EQ.1) THEN
  467 !           Read partRes format file
  468             WRITE(20,*) 'Reading partRes partitioning file...'
  469             filesize = 7500000
  470             ALLOCATE(ts(filesize))
  471             ALLOCATE(llat(filesize))
  472             ALLOCATE(llon(filesize))
  473             ALLOCATE(hs0(filesize))
  474             ALLOCATE(tp0(filesize))
  475             ALLOCATE(dir0(filesize))
  476             ALLOCATE(dspr0(filesize))
  477 !            ALLOCATE(wf0(filesize))
  478             ALLOCATE(wndSpd0(filesize))
  479             ALLOCATE(wndDir0(filesize))
  480             ALLOCATE(date0(filesize))
  481             WRITE(20,*) '*** Max number of lines read from "partRes" ', &
  482                     'input file is = ',filesize,'!'
  483             WRITE(6,*) 'Reading partRes file...'
  484             INQUIRE(FILE=filename, EXIST=file_exists)
  485             IF (.NOT.file_exists) THEN
  486                WRITE(20,2001)
  487                WRITE(6,2001)
  488                STOP 1
  489             END IF
  490             OPEN(unit=11,file=filename,status='old')
  491             line = 1
  492             DO WHILE (.TRUE.)
  493                READ (11, *, END=113) dummyc,llat(line),llon(line),   &
  494                             ts(line),hs0(line),tp0(line),dir0(line), &
  495                             wndSpd0(line),wndDir0(line),invar7
 
 
                                                         w3strkmd.F90  page  10
 
 
  496                !partRes file does not contain the dspr variable
  497                dspr0(line) = 9999.
  498 !               wf0(line) = 9999.
  499                line = line+1
  500             ENDDO
  501  113        IERR = -1
  502             CLOSE(11)
  503             line = line-1
  504             WRITE(6,*) '... finished'
  505 !            DEALLOCATE(date0)
  506          ELSE IF (intype.EQ.2) THEN
  507 !           Read WW3 Spectral Partition format file
  508 !           Query input file to determine required array sizes
  509             INQUIRE(FILE=filename, EXIST=file_exists)
  510             IF (.NOT.file_exists) THEN
  511                WRITE(20,2001)
  512                WRITE(6,2001)
  513                STOP 1
  514             END IF
  515 !/       -------------------------------------------------
  516 !/          Test unformatted read
  517 !/       -------------------------------------------------
  518             OPEN(UNIT=11,FILE=FILENAME,FORM='UNFORMATTED',STATUS='OLD',AC>
  519             READ(11,ERR=802,IOSTAT=IOERR) I
  520             CLOSE(11)
  521 !/          --- First four-byte integer could possibly be byte-swapped,
  522 !               if ww3_shel was compiled on a different architecture. ---
  523             K = SWAPI4(I)
  524             FLFORM = .NOT.(I.EQ.(LEN(IDSTR)+LEN(VERPRT)).OR.&
  525                            K.EQ.(LEN(IDSTR)+LEN(VERPRT))    )
  526 !        ======== COUNT LOOP ===========
  527             IF (FLFORM) THEN
  528 !              Input file in formatted ASCII
  529                WRITE(6,*) 'Reading formatted ASCII file...'
  530                OPEN(unit=11,file=filename,status='old')
  531                READ(11,'(78A)') headln1
  532                IDSTR = headln1(1:LEN(IDSTR))
  533                READ(11,'(78A)') headln1
  534                READ(11,'(51A)') headln2
  535             ELSE
  536                IF (K.EQ.(LEN(IDSTR)+LEN(VERPRT))) THEN
  537 !/           --- Stop here. The file appears to be endian encoded
  538 !                different from the native machine format. And, the
  539 !                compiler option will override support for FORTRAN
  540 !                convert statements convert='big_endian' or
  541 !                convert='little_endian'. ---
  542                  WRITE(20,1200)
  543                  WRITE(6,1200)
  544                  STOP 1
  545                ELSE
  546 !                Input file in unformatted binary
  547                  WRITE(6,*) 'Reading binary formatted file...'
  548                  OPEN(unit=11,file=filename,form='UNFORMATTED', &
  549                       status='OLD')
  550                ENDIF
 
 
                                                         w3strkmd.F90  page  11
 
 
  551                REWIND(11)
  552                READ(11,ERR=802,IOSTAT=IOERR) IDSTR,VERPRT
  553                READ(11,ERR=802,IOSTAT=IOERR) headln1
  554                READ(11,ERR=802,IOSTAT=IOERR) headln2
  555             END IF
  556 !/
  557            IF (IDSTR(1:9).ne.'WAVEWATCH') THEN
  558              CLOSE(11)
  559              WRITE(20,1300)
  560              WRITE(6,1300)
  561              STOP 1
  562            ENDIF
  563 !/       -------------------------------------------------
  564 !/          Skip to start time
  565 !/       -------------------------------------------------
  566             skipln = 3
  567             ttest = 0
  568             DO WHILE (ttest.LT.tstart)
  569               IF (FLFORM) THEN
  570                  READ (11,1000,ERR=802,END=112) date1,date2,x,y, &
  571                                   numpart,wnd,wnddir,invar6,invar7
  572                  skipln = skipln+1
  573               ELSE
  574                  READ (11,ERR=802,IOSTAT=IOERR) DATETIME,x,y, &
  575                             dummy,numpart,invar1,wnd,wnddir, &
  576                             invar5,invar6
  577 ! write(*,*) '0:',DATETIME,numpart
  578                  date1=dble(DATETIME(1))
  579                  date2=dble(DATETIME(2))
  580               END IF
  581               ttest = date1 + date2*1.0E-6
  582               IF (FLFORM) THEN
  583                 DO line = 1,numpart+1
  584                   READ(11,1010,END=111,ERR=802,IOSTAT=IOERR) &
  585                             invar1,invar2,invar3,invar4
  586 ! write(*,*) '0+:',line,numpart+1,invar1,invar2,invar3,invar4
  587                   skipln = skipln+1
  588                 END DO
  589               ELSE
  590                 DO line = 1,numpart+1
  591                   READ (11,ERR=802,IOSTAT=IOERR) iline,invar1, &
  592                               invar2,invar3,invar4,invar5,invar6
  593 ! write(*,*) '0+:',line,iline,invar1,invar2,invar3,invar4,invar5,invar6
  594                 END DO
  595               END IF
  596             END DO
  597             skipln = skipln-numpart-1-1
  598 !/       -------------------------------------------------
  599 !           Read file for ntint time levels
  600 !/       -------------------------------------------------
  601             readln = numpart
  602             tstep = 1
  603             ttemp = tstart
  604             maxPart = numpart
  605             DO WHILE (tstep.LE.ntint)
 
 
                                                         w3strkmd.F90  page  12
 
 
  606               IF (readln.GT.0) THEN
  607                  IF (FLFORM) THEN
  608                    READ (11,1000,ERR=802,END=111) date1,date2,x,y, &
  609                                     numpart,wnd,wnddir,invar6,invar7
  610                  ELSE
  611                     READ (11,END=111,ERR=802,IOSTAT=IOERR) DATETIME,  &
  612                       x,y,dummy,numpart,wnd,wnddir,invar5,invar6,invar7
  613 ! write(*,*) '1:',numpart,x,y
  614                     date1=dble(DATETIME(1))
  615                     date2=dble(DATETIME(2))
  616                  END IF
  617                  maxPart = MAX(maxPart,numpart)
  618               END IF
  619                     
  620               ttest = date1 + date2*1.E-6
  621               IF (ttest.GT.ttemp) THEN
  622                  tstep = tstep+1
  623                  ttemp = ttest
  624                  IF (tstep.GT.ntint) EXIT
  625               END IF
  626               IF (FLFORM) THEN
  627                  DO line = 1,numpart+1
  628                    READ (11,1010,END=111,ERR=802,IOSTAT=IOERR)      &
  629                             invar1,invar2,invar3,invar4
  630                    readln = readln+1
  631                  END DO
  632               ELSE
  633                  DO line = 1,numpart+1
  634                    READ (11,END=111,ERR=802,IOSTAT=IOERR) iline,invar1,&
  635                        invar2,invar3,invar4,invar5,invar6
  636                    readln = readln+1
  637                  END DO
  638               END IF
  639             ENDDO
  640  111        CONTINUE
  641             CLOSE(11)
  642 !        ===== END COUNT LOOP =====
  643 !        ===== START READ LOOP =====
  644             ALLOCATE(ts(readln))
  645             ALLOCATE(llat(readln))
  646             ALLOCATE(llon(readln))
  647             ALLOCATE(hs0(readln))
  648             ALLOCATE(tp0(readln))
  649             ALLOCATE(dir0(readln))
  650             ALLOCATE(dspr0(readln))
  651 !            ALLOCATE(wf0(readln))
  652             ALLOCATE(wndSpd0(readln))
  653             ALLOCATE(wndDir0(readln))
  654             ALLOCATE(date0(readln))
  655             ts(1:readln)   = -1
  656             llat(1:readln) = 9999.
  657             llon(1:readln) = 9999.
  658             hs0(1:readln)  = 9999.
  659             tp0(1:readln)  = 9999.
  660             dir0(1:readln)  = 9999.
 
 
                                                         w3strkmd.F90  page  13
 
 
  661             dspr0(1:readln)  = 9999.
  662                                     
  663                                     
  664             IF (FLFORM) THEN
  665                OPEN(unit=11,file=filename,status='old')
  666             ELSE
  667                OPEN(unit=11,file=filename,status='old', &
  668                     form='unformatted')
  669             END IF
  670             line = 1
  671             tstep = 1
  672 !/       -------------------------------------------------
  673 !/          Skip to start time
  674 !/       -------------------------------------------------
  675             IF (FLFORM) THEN
  676                DO i = 1,skipln
  677                   READ (11, *)
  678                END DO
  679             ELSE
  680             ! --- Repeat from above since access='DIRECT'
  681             !     does not support fseek and ftell. ---
  682                READ(11,END=112,ERR=802,IOSTAT=IOERR) IDSTR,VERPRT
  683                READ(11,END=112,ERR=802,IOSTAT=IOERR) headln1
  684                READ(11,END=112,ERR=802,IOSTAT=IOERR) headln2
  685             !/ --- allocate buffer for all partition parameters
  686             !/     for a single grid point  ---
  687                IF (.NOT.ALLOCATED(PHS)) ALLOCATE(PHS(maxPart))
  688                IF (.NOT.ALLOCATED(PTP)) ALLOCATE(PTP(maxPart))
  689                IF (.NOT.ALLOCATED(PDIR)) ALLOCATE(PDIR(maxPart))
  690                IF (.NOT.ALLOCATED(PSPR)) ALLOCATE(PSPR(maxPart))
  691                IF (.NOT.ALLOCATED(PWF)) ALLOCATE(PWF(maxPart))
  692                                                               
  693                ttest = 0
  694                         
  695                DO WHILE (ttest.LT.tstart)
  696                  READ (11,END=112,ERR=802,IOSTAT=IOERR) DATETIME, &
  697                             invar1,invar2,dummy,numpart,invar3,   &
  698                             invar4,invar5,invar6,invar7
  699                  date1=dble(DATETIME(1))
  700                  date2=dble(DATETIME(2))
  701                  ttest = date1 + date2*1.0E-6
  702               !/ --- reset buffer ---
  703                  PHS(:) = 0.
  704                  PTP(:) = 0.
  705                  PDIR(:) = 0.
  706                  PSPR(:) = 0.
  707                  PWF(:) = 0.
  708                             
  709               !/ --- fill buffer with partition data ---
  710                  READ (11,END=112,ERR=802,IOSTAT=IOERR) iline,invar1, &
  711                           invar2,invar3,invar4,invar5,invar6
  712                  DO i = 1,numpart
  713                    READ (11,END=112,ERR=802,IOSTAT=IOERR) iline,      &
  714                        phs(i),ptp(i),invar3,pdir(i),pspr(i),pwf(i)
  715                  END DO
 
 
                                                         w3strkmd.F90  page  14
 
 
  716                END DO
  717              !/ --- move buffer content to data array ---
  718                DO i=1,numpart
  719                  hs0(line)   = phs(i)
  720                  tp0(line)   = ptp(i)
  721                  dir0(line)  = pdir(i)
  722                  dspr0(line) = pspr(i)
  723                  date0(line) = date1 + date2*1.0E-6
  724                  ts(line) = tstep
  725                  llat(line) = x
  726                  llon(line) = y
  727                  wndSpd0(line) = wnd
  728                  wndDir0(line) = wnddir
  729                                        
  730                  line = line + 1
  731                END DO
  732                      
  733             END IF
  734 !/       -------------------------------------------------
  735 !           Read file for ntint time levels
  736 !/       -------------------------------------------------
  737             ttemp = tstart
  738             DO WHILE (line.LE.readln)
  739               IF (FLFORM) THEN
  740                  READ (11,1000,END=112) date1,date2,x,y,numpart, &
  741                                         wnd,wnddir,invar6,invar7
  742               ELSE
  743                  READ (11,ERR=802,IOSTAT=IOERR) DATETIME,x,y,    &
  744                       dummy,numpart,wnd,wnddir,invar5,invar6,invar7
  745                  date1=dble(DATETIME(1))
  746                  date2=dble(DATETIME(2))
  747               END IF
  748                     
  749               ttest = date1 + date2*1.0E-6
  750               IF (ttest.GT.ttemp) THEN
  751                  tstep = tstep+1
  752                  ttemp = ttest
  753                  IF (tstep.GT.ntint) EXIT
  754               END IF
  755                     
  756               IF (FLFORM) THEN
  757                 READ (11,1010,END=112) invar1,invar2,invar3,invar4 ! Skip>
  758                 DO i = 1,numpart
  759                   IF (line.LE.readln) THEN
  760                     READ (11,1010,END=112) hs0(line),tp0(line), &
  761                                        dir0(line),dspr0(line)
  762                     date0(line) = ttest
  763                                        
  764                     ts(line) = tstep
  765                     llat(line) = x
  766                     llon(line) = y
  767                     wndSpd0(line) = wnd
  768                     wndDir0(line) = wnddir
  769                                           
  770                     line = line+1
 
 
                                                         w3strkmd.F90  page  15
 
 
  771                   END IF
  772                 END DO
  773               ELSE
  774                  READ (11,ERR=802,IOSTAT=IOERR) k,invar1,invar2,  &
  775                      invar3,invar4,invar5
  776                  DO i = 1,numpart
  777                    IF (line.LE.readln) THEN
  778                      READ (11,END=112,ERR=802,IOSTAT=IOERR) k,         &
  779                           hs0(line),tp0(line),invar3,dir0(line),       &
  780                           dspr0(line)
  781                      date0(line) = ttest
  782                                         
  783                      ts(line) = tstep
  784                      llat(line) = x
  785                      llon(line) = y
  786                      wndSpd0(line) = wnd
  787                      wndDir0(line) = wnddir
  788                                            
  789                      line = line+1
  790                   END IF
  791                  END DO
  792               END IF
  793             END DO
  794  110        IERR = -1
  795             CLOSE(11)
  796                      
  797  112        CONTINUE
  798             IF (line.EQ.1) THEN
  799                WRITE(20,2002)
  800                WRITE(6,2002)
  801                STOP 1
  802             END IF
  803             CLOSE(11)
  804 ! ===== READ LOOP FINISHED =====
  805             LINE=LINE-1
  806                        
  807             WRITE(6,*) '... finished'
  808                                      
  809             IF (ttest.LT.tstart) THEN
  810                WRITE(20,2003) TSTART
  811                WRITE(6,2003) TSTART
  812                STOP 1
  813             END IF
  814                   
  815             IF (ALLOCATED(PHS)) DEALLOCATE(PHS)
  816             IF (ALLOCATED(PTP)) DEALLOCATE(PTP)
  817             IF (ALLOCATED(PDIR)) DEALLOCATE(PDIR)
  818             IF (ALLOCATED(PSPR)) DEALLOCATE(PSPR)
  819             IF (ALLOCATED(PWF)) DEALLOCATE(PWF)
  820                                                
  821          END IF
  822                
  823                
  824 !        Find unique time steps (and sort in ascending order)
  825          CALL UNIQUE(REAL(ts(1:line)),line,uniqueTim,maxTs)
 
 
                                                         w3strkmd.F90  page  16
 
 
  826                                                            
  827 !        Find unique lat and lon values (and sort in ascending order)
  828          CALL UNIQUE(llat(1:line),SIZE(llat(1:line)),uniqueLatraw,nout1)
  829          CALL UNIQUE(llon(1:line),SIZE(llon(1:line)),uniqueLonraw,nout2)
  830                                                                         
  831 !--042916-----------------------
  832 !
  833 !        Redefine uniqueLatraw and uniqueLonrawto based on domain extent
  834          WRITE(20,*) 'uniqueLatraw(:) =', uniqueLatraw(:)
  835          WRITE(20,*) 'uniqueLonraw(:) =', uniqueLonraw(:)
  836                                                          
  837          WRITE(20,*) 'No. increments: Longitude, Latitue =', mxcwt, mycwt
  838          DEALLOCATE(uniqueLatraw)
  839          DEALLOCATE(uniqueLonraw)
  840          ALLOCATE(uniqueLatraw(mycwt+1))
  841          ALLOCATE(uniqueLonraw(mxcwt+1))
  842          DO i = 1,(mycwt+1)
  843             uniqueLatraw(i) =  minlat + &
  844                                (REAL(i)-1)/REAL(mycwt)*(maxlat-minlat)
  845          END DO
  846          DO i = 1,(mxcwt+1)
  847             uniqueLonraw(i) =  minlon + &
  848                                (REAL(i)-1)/REAL(mxcwt)*(maxlon-minlon)
  849          END DO
  850          WRITE(20,*) 'uniqueLatraw(:) =', uniqueLatraw(:)
  851          WRITE(20,*) 'uniqueLonraw(:) =', uniqueLonraw(:)
  852 !
  853 !--042916-----------------------
  854                                 
  855 !        Filter out lats and lons outside of domain of interest
  856          DO latind1 = 1,SIZE(uniqueLatraw)
  857             IF (uniqueLatraw(latind1).GE.minlat) EXIT
  858          END DO
  859          DO latind2 = SIZE(uniqueLatraw),1,-1
  860             IF (uniqueLatraw(latind2).LE.maxlat) EXIT
  861          END DO
  862          DO lonind1 = 1,SIZE(uniqueLonraw)
  863             IF (uniqueLonraw(lonind1).GE.minlon) EXIT
  864          END DO
  865          DO lonind2 = SIZE(uniqueLonraw),1,-1
  866             IF (uniqueLonraw(lonind2).LE.maxlon) EXIT
  867          END DO
  868          WRITE(20,*) 'latind1, latind2, lonind1, lonind2 =', &
  869                      latind1, latind2, lonind1, lonind2
  870          IF ((latind1.GE.latind2).OR.(lonind1.GE.lonind2)) THEN
  871             WRITE(20,1400)
  872             WRITE(6,1400)
  873             STOP 1
  874          END IF
  875          NULLIFY(uniqueLat)
  876          NULLIFY(uniqueLon)
  877          ALLOCATE(uniqueLat(latind2-latind1+1))
  878          ALLOCATE(uniqueLon(lonind2-lonind1+1))
  879          uniqueLat = uniqueLatraw(latind1:latind2)
  880          uniqueLon = uniqueLonraw(lonind1:lonind2)
 
 
                                                         w3strkmd.F90  page  17
 
 
  881          WRITE(20,*) 'In waveTracking_NWS_V2: Longitude range =', &
  882                      uniqueLon(1), uniqueLon(SIZE(uniqueLon))
  883          WRITE(20,*) '                        Latitude range  =', &
  884                      uniqueLat(1), uniqueLat(SIZE(uniqueLat))
  885                                                              
  886 !        Map is transposed (rotated by 90 deg), so that:
  887 !          I (matrix row) represents Longitute
  888 !          J (matrix column) represents Latitude
  889 !          i.e. from this point onwards the indices (i,j) represents Cart>
  890          ALLOCATE( mlon(SIZE(uniqueLon),SIZE(uniqueLat)) )
  891          ALLOCATE( mlat(SIZE(uniqueLon),SIZE(uniqueLat)) )
  892 !
  893          maxI = SIZE(uniqueLon)
  894          maxJ = SIZE(uniqueLat)
  895          DO I = 1,maxI
  896             DO J = 1,maxJ
  897                mlon(I,J) = uniqueLon(I)
  898                mlat(I,J) = uniqueLat(J)
  899             END DO
  900          END DO
  901                
  902                
  903 !        Allocate the wsdat structure
  904             WRITE(20,*) 'Allocating wsdat...'
  905          NULLIFY(wsdat)
  906          ALLOCATE(wsdat(maxTs))
  907             WRITE(20,*) 'SIZE(wsdat) = ',SIZE(wsdat)
  908                                                     
  909 !        Allocate and initialize the wsdat array
  910          DO tsA = 1,maxTs
  911             ALLOCATE(wsdat(tsA)%lat(maxI,maxJ))
  912             ALLOCATE(wsdat(tsA)%lon(maxI,maxJ))
  913             ALLOCATE(wsdat(tsA)%par(maxI,maxJ))
  914             ALLOCATE(wsdat(tsA)%wnd(maxI,maxJ))
  915                                                
  916             DO j = 1,maxJ
  917                DO i = 1,maxI
  918                   wsdat(tsA)%lat(i,j)=mlat(i,j)
  919                   wsdat(tsA)%lon(i,j)=mlon(i,j)
  920                   wsdat(tsA)%maxi=maxI
  921                   wsdat(tsA)%maxj=maxJ
  922                   wsdat(tsA)%par(i,j)%hs(1:10)=9999.
  923                   wsdat(tsA)%par(i,j)%tp(1:10)=9999.
  924                   wsdat(tsA)%par(i,j)%dir(1:10)=9999.
  925                   wsdat(tsA)%par(i,j)%dspr(1:10)=9999.
  926 !                  wsdat(tsA)%par(i,j)%wf(1:10)=9999.
  927                   wsdat(tsA)%par(i,j)%ipart(1:10)=0
  928                   wsdat(tsA)%par(i,j)%sys(1:10)=9999                     >
  929                   wsdat(tsA)%par(i,j)%ngbrSys(1:50)=9999
  930                   wsdat(tsA)%wnd(i,j)%wdir=9999.
  931                   wsdat(tsA)%wnd(i,j)%wspd=9999.
  932                   wsdat(tsA)%par(i,j)%checked=-1
  933                END DO
  934             END DO
  935          END DO
 
 
                                                         w3strkmd.F90  page  18
 
 
  936                
  937 !        Assign to each line in partition file an entry in wsdat
  938 !        At each time step each point contains all numpart partitions.
  939 !        Only store the first 10 partitions.
  940          l = 1
  941               
  942          DO WHILE (l.LE.line)
  943             DO j = 1,maxJ
  944                DO i = 1,maxI
  945 !>042916                  IF ( (llat(l).EQ.mlat(i,j)).AND. &
  946 !>042916                       (llon(l).EQ.mlon(i,j)) ) THEN
  947                   IF ( (ABS(llat(l)-mlat(i,j)).LT.1.E-2).AND. &
  948                        (ABS(llon(l)-mlon(i,j)).LT.1.E-2) ) THEN
  949 !                    WRITE(20,*) 'MATCHED! ',l,&
  950 !                       llat(l),mlat(i,j),ABS(llat(l)-mlat(i,j)),&
  951 !                       llon(l),mlon(i,j),ABS(llon(l)-mlon(i,j))
  952                     wsdat(ts(l))%lat(i,j) = llat(l)
  953                     wsdat(ts(l))%lon(i,j) = llon(l)
  954 !                   --- Find ALL partition values associated with
  955 !                       lat(i,j) and lon(i,j). Keep list index l
  956 !                       fixed and recycle iline as variable index. ---
  957                     iline = l
  958                     k = 1
  959                     DO WHILE (                                         &
  960                        ABS(wsdat(ts(l))%lat(i,j)-llat(iline)).LT.1.E-3 &
  961                   .AND.ABS(wsdat(ts(l))%lon(i,j)-llon(iline)).LT.1.E-3 )
  962                       IF (k.LE.10) THEN
  963                        wsdat(ts(iline))%par(i,j)%ipart(k) = k
  964                        wsdat(ts(iline))%par(i,j)%hs(k)    = hs0(iline)
  965                        wsdat(ts(iline))%par(i,j)%tp(k)    = tp0(iline)
  966                        wsdat(ts(iline))%par(i,j)%dir(k)   = dir0(iline)
  967                        wsdat(ts(iline))%par(i,j)%dspr(k)  = dspr0(iline)
  968 !                       wsdat(ts(k))%par(i,j)%wf(k) = wf0(l)
  969                        IF (k.EQ.1) THEN
  970                         wsdat(ts(iline))%date = date0(iline)
  971                         wsdat(ts(iline))%wnd(i,j)%wdir = wndDir0(iline)
  972                         wsdat(ts(iline))%wnd(i,j)%wspd = wndSpd0(iline)
  973                         wsdat(ts(iline))%par(i,j)%checked = 0
  974                        END IF
  975                       END IF
  976                       k = k + 1
  977                       iline = iline + 1
  978                       if (iline.GT.line) EXIT
  979                     END DO
  980 !                   --- Account for increment at the end of loop (400 CON>
  981 !                       and go one element back in list because of increm>
  982                     l = iline-1
  983                     GOTO 400
  984                   END IF
  985                END DO
  986             END DO
  987  400        CONTINUE
  988             IF (l+1.le.line) THEN
  989              IF (ts(l).LT.ts(l+1)) THEN
  990               K = line-l
 
 
                                                         w3strkmd.F90  page  19
 
 
  991 !             --- With each time step completed, deallocate processed 1:l
  992 !                 elements from 1d array. Create a temporary array size of
  993 !                 (l+1:line) with k elements and reallocate original arra>
  994               IF (ALLOCATED(tmp_i4)) DEALLOCATE(tmp_i4)
  995 !             --- REALLOCATE(integer arrays) ---
  996               ALLOCATE(tmp_i4(k))
  997               tmp_i4(1:k) = ts((l+1):line)
  998               DEALLOCATE(ts)
  999               ALLOCATE(ts(k))
 1000               ts(1:k) = tmp_i4(1:k)
 1001               DEALLOCATE(tmp_i4)
 1002 !             --- REALLOCATE(double precision arrays) ---
 1003               IF (ALLOCATED(tmp_r8)) DEALLOCATE(tmp_r8)
 1004               ALLOCATE(tmp_r8(k))
 1005               tmp_r8(1:k) = date0((l+1):line)
 1006               DEALLOCATE(date0)
 1007               ALLOCATE(date0(k))
 1008               date0(1:k) = tmp_r8(1:k)
 1009               DEALLOCATE(tmp_r8)
 1010 !             --- REALLOCATE(single precision arrays) ---
 1011               IF (ALLOCATED(tmp_r4)) DEALLOCATE(tmp_r4)
 1012               ALLOCATE(tmp_r4(k))
 1013               tmp_r4(1:k) = llat((l+1):line)
 1014               DEALLOCATE(llat)
 1015               ALLOCATE(llat(k))
 1016               llat(1:k) = tmp_r4(1:k)
 1017               tmp_r4(1:k) = llon((l+1):line)
 1018               DEALLOCATE(llon)
 1019               ALLOCATE(llon(k))
 1020               llon(1:k) = tmp_r4(1:k)
 1021               tmp_r4(1:k) = hs0((l+1):line)
 1022               DEALLOCATE(hs0)
 1023               ALLOCATE(hs0(k))
 1024               hs0(1:k) = tmp_r4(1:k)
 1025               tmp_r4(1:k) = tp0((l+1):line)
 1026               DEALLOCATE(tp0)
 1027               ALLOCATE(tp0(k))
 1028               tp0(1:k) = tmp_r4(1:k)
 1029               tmp_r4(1:k) = dir0((l+1):line)
 1030               DEALLOCATE(dir0)
 1031               ALLOCATE(dir0(k))
 1032               dir0(1:k) = tmp_r4(1:k)
 1033               tmp_r4(1:k) = dspr0((l+1):line)
 1034               DEALLOCATE(dspr0)
 1035               ALLOCATE(dspr0(k))
 1036               dspr0(1:k) = tmp_r4(1:k)
 1037               tmp_r4(1:k) = wndSpd0((l+1):line)
 1038               DEALLOCATE(wndSpd0)
 1039               ALLOCATE(wndSpd0(k))
 1040               wndSpd0(1:k) = tmp_r4(1:k)
 1041               tmp_r4(1:k) = wndDir0((l+1):line)
 1042               DEALLOCATE(wndDir0)
 1043               ALLOCATE(wndDir0(k))
 1044               wndDir0(1:k) = tmp_r4(1:k)
 1045               DEALLOCATE(tmp_r4)
 
 
                                                         w3strkmd.F90  page  20
 
 
 1046               line = k
 1047               l = 0
 1048              END IF
 1049             END IF
 1050             l = l + 1
 1051          END DO
 1052 !
 1053          IF (ALLOCATED(ts)) DEALLOCATE(ts)
 1054          IF (ALLOCATED(llat)) DEALLOCATE(llat)
 1055          IF (ALLOCATED(llon)) DEALLOCATE(llon)
 1056          IF (ALLOCATED(mlat)) DEALLOCATE(mlat)
 1057          IF (ALLOCATED(mlon)) DEALLOCATE(mlon)
 1058          IF (ALLOCATED(date0)) DEALLOCATE(date0)
 1059          IF (ALLOCATED(hs0)) DEALLOCATE(hs0)
 1060          IF (ALLOCATED(tp0)) DEALLOCATE(tp0)
 1061          IF (ALLOCATED(dir0)) DEALLOCATE(dir0)
 1062          IF (ALLOCATED(dspr0)) DEALLOCATE(dspr0)
 1063 !         IF (ALLOCATED(wf0)) DEALLOCATE(wf0)
 1064          IF (ALLOCATED(wndSpd0)) DEALLOCATE(wndSpd0)
 1065          IF (ALLOCATED(wndDir0)) DEALLOCATE(wndDir0)
 1066                                                     
 1067                                                     
 1068                                                     
 1069 ! ----*** Test Output *** ----------------------------------------------->
 1070       IF (testout) THEN
 1071 !-----RAW PARTITION output: Coordinates
 1072       OPEN(unit=31,file='PART_COORD.OUT',status='unknown')
 1073                                                           
 1074       WRITE(31,*) 'Longitude ='
 1075       DO j = maxJ,1,-1
 1076          DO i = 1,maxI
 1077             WRITE(31,'(F7.2)',ADVANCE='NO') wsdat(1)%lon(i,j)
 1078          END DO
 1079          WRITE(31,'(A)',ADVANCE='YES') ''
 1080       END DO
 1081             
 1082       WRITE(31,*) 'Latitude = '
 1083       DO j = maxJ,1,-1
 1084          DO i = 1,maxI
 1085             WRITE(31,'(F7.2)',ADVANCE='NO') wsdat(1)%lat(i,j)
 1086          END DO
 1087          WRITE(31,'(A)',ADVANCE='YES') ''
 1088       END DO
 1089             
 1090       CLOSE(31)
 1091                
 1092 !-----RAW PARTITION output: hs
 1093       OPEN(unit=32, file='PART_HSIGN.OUT', &
 1094            status='unknown')
 1095                             
 1096       maxpartout = 5
 1097       DO tsA = 1,SIZE(wsdat)
 1098          WRITE(32,'(I4,71x,A)') tsA,'Time step'
 1099          WRITE(32,'(I4,71x,A)') maxpartout,'Tot number of raw partitions'
 1100          DO k = 1,maxpartout
 
 
                                                         w3strkmd.F90  page  21
 
 
 1101             WRITE(32,'(I4,71x,A)') k,'System number'
 1102             WRITE(32,'(I4,71x,A)') 9999,'Number of points in system'
 1103             DO j = maxJ,1,-1
 1104                DO i = 1,maxI
 1105                   WRITE(32,'(F8.2)',ADVANCE='NO') wsdat(tsA)%par(i,j)%hs(>
 1106                END DO
 1107                WRITE(32,'(A)',ADVANCE='YES') ''
 1108             END DO
 1109          END DO
 1110       END DO
 1111             
 1112       CLOSE(32)
 1113                
 1114 !-----RAW PARTITION output: tp
 1115 !      OPEN(unit=33,recl=2147483646, file='PART_TP.OUT', &
 1116 !           status='unknown')
 1117       OPEN(unit=33, file='PART_TP.OUT', &
 1118            status='unknown')
 1119                             
 1120       DO tsA = 1,SIZE(wsdat)
 1121          WRITE(33,'(I4,71x,A)') tsA,'Time step'
 1122          WRITE(33,'(I4,71x,A)') maxpartout,'Tot number of raw partitions'
 1123          DO k = 1,maxpartout
 1124             WRITE(33,'(I4,71x,A)') k,'System number'
 1125             WRITE(33,'(I4,71x,A)') 9999,'Number of points in system'
 1126             DO j = maxJ,1,-1
 1127                DO i = 1,maxI
 1128                   WRITE(33,'(F8.2)',ADVANCE='NO') wsdat(tsA)%par(i,j)%tp(>
 1129                END DO
 1130                WRITE(33,'(A)',ADVANCE='YES') ''
 1131             END DO
 1132          END DO
 1133       END DO
 1134             
 1135       CLOSE(33)
 1136                
 1137 !-----RAW PARTITION output: dir
 1138       OPEN(unit=34, file='PART_DIR.OUT', &
 1139            status='unknown')
 1140                             
 1141       DO tsA = 1,SIZE(wsdat)
 1142          WRITE(34,'(I4,71x,A)') tsA,'Time step'
 1143          WRITE(34,'(I4,71x,A)') maxpartout,'Tot number of raw partitions'
 1144          DO k = 1,maxpartout
 1145             WRITE(34,'(I4,71x,A)') k,'System number'
 1146             WRITE(34,'(I4,71x,A)') 9999,'Number of points in system'
 1147             DO j = maxJ,1,-1
 1148                DO i = 1,maxI
 1149                   WRITE(34,'(F8.2)',ADVANCE='NO') wsdat(tsA)%par(i,j)%dir>
 1150                END DO
 1151                WRITE(34,'(A)',ADVANCE='YES') ''
 1152             END DO
 1153          END DO
 1154       END DO
 1155             
 
 
                                                         w3strkmd.F90  page  22
 
 
 1156       CLOSE(34)
 1157                
 1158 !-----RAW PARTITION output: dspr
 1159       OPEN(unit=35, file='PART_DSPR.OUT', &
 1160            status='unknown')
 1161                             
 1162       DO tsA = 1,SIZE(wsdat)
 1163          WRITE(35,'(I4,71x,A)') tsA,'Time step'
 1164          WRITE(35,'(I4,71x,A)') maxpartout,'Tot number of raw partitions'
 1165          DO k = 1,maxpartout
 1166             WRITE(35,'(I4,71x,A)') k,'System number'
 1167             WRITE(35,'(I4,71x,A)') 9999,'Number of points in system'
 1168             DO j = maxJ,1,-1
 1169                DO i = 1,maxI
 1170                   WRITE(35,'(F8.2)',ADVANCE='NO') &
 1171                      wsdat(tsA)%par(i,j)%dspr(k)
 1172                END DO
 1173                WRITE(35,'(A)',ADVANCE='YES') ''
 1174             END DO
 1175          END DO
 1176       END DO
 1177             
 1178       CLOSE(35)
 1179       END IF
 1180             
 1181 ! ------------------------------------------------------------------------
 1182                                                                           
 1183 !        Allocate the sysA structure
 1184          WRITE(20,*) 'Allocating sysA...'
 1185          ALLOCATE( sysA(maxTs) )
 1186          WRITE(20,*) 'SIZE(sysA) = ',SIZE(sysA)
 1187          WRITE(6,1020) ' Number of time levels being processed:',SIZE(sys>
 1188  1020    FORMAT(A,I4)
 1189                      
 1190 !        Allocate maxSys
 1191          ALLOCATE( maxSys(maxTs) )
 1192       ELSE
 1193 !        Raw partitioning data from wave model memory, via the array wsda>
 1194 !        Set maxTs to the time step to compute: 1=first time step, 2=othe>
 1195          maxTs = tmax
 1196          t0 = tcur
 1197                   
 1198 !        Allocate the sysA structure
 1199          ALLOCATE( sysA(1) )                                             >
 1200 !        Allocate maxSys
 1201          ALLOCATE( maxSys(1) )                                           >
 1202       END IF
 1203             
 1204 !     Big loop over all time levels
 1205          WRITE(6,*) 'Performing spatial tracking...'
 1206       DO tsA = t0,maxTs
 1207                        
 1208           WRITE(20,*) 'Call spiralTrackV3, tsA=',tsA,'...'
 1209           CALL spiralTrackV3 ( wsdat(tsA), dirKnob, perKnob, wetPts, &
 1210                                hsKnob, seedLat, seedLon, &
 
 
                                                         w3strkmd.F90  page  23
 
 
 1211                                maxSys(tsA), sysA(tsA)%sys )
 1212                                                            
 1213           WRITE(20,*) '*** SIZE(sysA(1:tsA)%sys) at end of time step', &
 1214                        tsA,':'
 1215           WRITE(20,*) SIZE(sysA(tsA)%sys)
 1216       END DO
 1217             
 1218             
 1219       WRITE(6,*) 'Performing temporal tracking...'
 1220       WRITE(20,*) 'Calling timeTrackingV2...'
 1221       lonext = wsdat(1)%lon(maxI,1)-wsdat(1)%lon(1,1)
 1222       latext = wsdat(1)%lat(1,maxJ)-wsdat(1)%lat(1,1)
 1223                                                      
 1224       CALL timeTrackingV2 (sysA, maxSys, tpTimeKnob, dirTimeKnob, 1, &
 1225                            maxGroup, dt, lonext, latext, maxI, maxJ)
 1226 !
 1227       RETURN
 1228 !
 1229   802 CONTINUE
 1230       WRITE (6,990) IOERR
 1231       STOP 1
 1232             
 1233   990 FORMAT (/' *** WAVEWATCH III ERROR IN W3STRKMD : '/            &
 1234                '     ERROR IN READING FROM PARTITION FILE'/          &
 1235                '     IOSTAT =',I5/)
 1236  1000 FORMAT (F9.0,F7.0,F8.3,F8.3,14X,I3,7X,F5.1,F6.1,F5.1,F6.1)
 1237  1010 FORMAT (3X,F8.2,F8.2,8X,F9.2,F9.2)
 1238  1200 FORMAT (/' *** WAVEWATCH III ERROR IN W3STRKMD : '/            &
 1239                '     ERROR IN READING PARTITION FILE   '/            &
 1240                '     INCOMPATIBLE ENDIANESS'/                        )
 1241  1300 FORMAT (/' *** WAVEWATCH III ERROR IN W3STRKMD : '/            &
 1242         '     ERROR IN READING PARTITION FILE   '/                   &
 1243         '     EXPECTED IDSTR "WAVEWATCH III PARTITIONED DATA FILE"'/ )
 1244  1400 FORMAT (/' *** WAVEWATCH III ERROR IN W3STRKMD : '/            &
 1245                '     ERROR IN FINDING DOMAIN TO PROCESS - '/         &
 1246                '     SPECIFIED LAT/LON LIMITS WITHIN DOMAIN '/       &
 1247                '     OF RAW PARTITION FILE?'/                        )
 1248  2001 FORMAT (/' *** WAVEWATCH III ERROR IN W3SYSTRK : '/            &
 1249                '     ERROR IN OPENING INPUT FILE'/                   )
 1250  2002 FORMAT (/' *** WAVEWATCH III ERROR IN W3SYSTRK : '/            &
 1251                '     PREMATURE END OF INPUT FILE'/                   )
 1252  2003 FORMAT (/' *** WAVEWATCH III ERROR IN W3SYSTRK : '/            &
 1253                '     PREMATURE END OF PARTITION FILE - '/            &
 1254                '     TSTART=',F13.4/                                 )
 1255 !
 1256       END SUBROUTINE waveTracking_NWS_V2
 1257 !/ End of waveTracking_NWS_V2 ---------------------------------------- /
 1258 !/
 1259 !/ ------------------------------------------------------------------- /
 1260       SUBROUTINE spiralTrackV3 (wsdat   ,dirKnob ,perKnob ,wetPts  , &
 1261                                 hsKnob  ,seedLat ,seedLon  , &
 1262                                 maxSys  ,sys   )
 1263 !/
 1264 !/                  +-----------------------------------+
 1265 !/                  | WAVEWATCH III           NOAA/NCEP |
 
 
                                                         w3strkmd.F90  page  24
 
 
 1266 !/                  |     A. J. van der Westhuysen      |
 1267 !/                  |            Jeff Hanson            |
 1268 !/                  |        Eve-Marie Devaliere        |
 1269 !/                  |                        FORTRAN 95 |
 1270 !/                  | Last update :          4-Jan-2013 |
 1271 !/                  +-----------------------------------+
 1272 !/
 1273 !/    03-Feb-2012 : Origination, based on Matlab code   ( version 4.05 )
 1274 !/                  by Jeff Hanson & Eve-Marie Devaliere
 1275 !/    04-Jan-2013 : Inclusion in trunk                  ( version 4.08 )
 1276 !/
 1277 !/    Copyright 2009-2013 National Weather Service (NWS),
 1278 !/       National Oceanic and Atmospheric Administration.  All rights
 1279 !/       reserved.  WAVEWATCH III is a trademark of the NWS.
 1280 !/       No unauthorized use without permission.
 1281 !/
 1282       IMPLICIT NONE
 1283 !
 1284 !  1. Purpose :
 1285 !
 1286 !     Performs the spatial spiral tracking for a given time step
 1287 !
 1288 !  2. Method
 1289 !
 1290 !     Index convention on grid:
 1291 !
 1292 !      j
 1293 !      ^
 1294 !      |+(1,maxJ)          +(maxI,maxJ)
 1295 !      |
 1296 !      |
 1297 !      |
 1298 !      |
 1299 !      |
 1300 !      |
 1301 !      |(1,1)              +(maxI,1)
 1302 !      +----------------------> i
 1303 !
 1304 !  3. Parameters :
 1305 !
 1306 !     Parameter list
 1307 !     ----------------------------------------------------------------
 1308 !     dirKnob     Real     input  Parameter in direction for combining fi>
 1309 !     perKnob     Real     input  Parameter in period for combining field>
 1310 !     wetPts      Real     input  Percentage of wet points for purging fi>
 1311 !     hsKnob      Real     input  Parameter in wave height for purging fi>
 1312 !     seedLat     Real     input  Start Lat for tracking spiral (if =0 ce>
 1313 !     seedLon     Real     input  Start Lon for tracking spiral (if =0 ce>
 1314 !     wsdat       Real arr output Input 2d (gridded) data structure to be>
 1315 !     maxSys      Int      output Maximum number of partition systems
 1316 !     sys     Type(system) output Final set of tracked systems, for one t>
 1317 !
 1318       TYPE(dat2d)  :: wsdat
 1319       REAL         :: dirKnob,perKnob,wetPts,hsKnob,seedLat,seedLon
 1320       INTEGER      :: maxSys
 
 
                                                         w3strkmd.F90  page  25
 
 
 1321       TYPE(system), POINTER :: sys(:)
 1322                                      
 1323       INTENT (IN) wetPts,dirKnob,perKnob,hsKnob,seedLat,seedLon
 1324       INTENT (IN OUT) wsdat
 1325 !      INTENT (OUT) maxSys,sys
 1326 !
 1327 !     Local variables
 1328 !     ----------------------------------------------------------------
 1329 !     ngbrExt    Int    How far do we want the neighbour to be considered
 1330 !     combine    Int    Toggle (1=combine wave systems; 0=do not combine)
 1331 !     maxI,MaxJ  Int    Dimensions of the 2d (gridded) data wsdat
 1332 !     deltaLat   Real   Delta in kilometers between 2 pts (in latitude)
 1333 !
 1334       LOGICAL   :: first
 1335       CHARACTER :: way *1
 1336       INTEGER   :: ngbrExt, combine, maxI, maxJ, i, j, oldJ
 1337       INTEGER   :: horizStepCount, vertStepCount, checkCount, sc, &
 1338                    maxPts, landPts, horizBorder, vertBorder, m, k, &
 1339                    stepCount
 1340       REAL      :: deltaLat, minLat, maxLat, minLon, maxLon
 1341 !
 1342 !  4. Subroutines used :
 1343 !
 1344 !      Name      Type  Module   Description
 1345 !     ----------------------------------------------------------------
 1346 !      findWay
 1347 !      findNext
 1348 !      findSys
 1349 !      combineWaveSystems
 1350 !
 1351 !  5. Subroutines calling
 1352 !
 1353 !     waveTracking_NWS_V2
 1354 !
 1355 !  6. Error messages :
 1356 !
 1357 !  7. Remarks :
 1358 !
 1359 !  8. Structure :
 1360 !
 1361 !     -
 1362 !
 1363 !  9. Switches :
 1364 !
 1365 !     None defined yet.
 1366 !
 1367 ! 10. Source code :
 1368 !
 1369 !/ ------------------------------------------------------------------- /
 1370                                                                         
 1371 ! Routine starts by identifying the starting point. Choose the 'center' o>
 1372 !     Set the search distance for neighbors:
 1373 !     1: 1 row and column out, i.e. the 8 neighbors around the current po>
 1374 !     2: 2 rows and columns out... etc.
 1375       ngbrExt=1
 
 
                                                         w3strkmd.F90  page  26
 
 
 1376       combine=1
 1377       WRITE(20,*) 'In spiralTrackV3: combine = ',combine
 1378                                                         
 1379       maxI = wsdat%maxi
 1380       maxJ = wsdat%maxj
 1381       IF ( (seedLat.EQ.0).OR.(seedLon.EQ.0) ) THEN
 1382          i=NINT(REAL(maxI)/2.)
 1383          j=NINT(REAL(maxJ)/2.)
 1384          WRITE(20,*) 'In spiralTrackV3, i=NINT(maxI/2.) =',i
 1385          WRITE(20,*) 'In spiralTrackV3, j=NINT(maxJ/2.) =',j
 1386       ELSE
 1387          i=1
 1388          j=1
 1389          DO WHILE ( (wsdat%lat(1,j).LT.seedLat).AND.(j.LT.wsdat%maxj) )  >
 1390             j=j+1
 1391          END DO
 1392          DO WHILE ( (wsdat%lon(i,1).LT.seedLon).AND.(i.LT.wsdat%maxi) )
 1393             i=i+1
 1394          END DO
 1395       END IF
 1396 !     In case center point is land point...
 1397       IF (wsdat%par(i,j)%checked.EQ.-1) THEN
 1398           oldJ=j
 1399           DO WHILE (wsdat%par(i,j)%checked.EQ.-1)
 1400               j=j+1
 1401               IF (j.EQ.maxJ) THEN
 1402                   j=oldJ
 1403                   i=i+1
 1404                   oldJ=oldJ+1
 1405               END IF
 1406           END DO
 1407       END IF
 1408 !     Compute distance in km between 2 grid points (at equator)
 1409       deltaLat=(wsdat%lat(i,j)-wsdat%lat(i,j-1))*111.18
 1410                                                        
 1411 !     Starts the spiral
 1412 !     Intitiate variables
 1413       horizStepCount=0
 1414       vertStepCount=0
 1415       way='R'
 1416       first=.TRUE.
 1417       checkCount=1
 1418       maxSys=0
 1419       landPts=0
 1420                
 1421       minLat=MINVAL(wsdat%lat)
 1422       maxLat=MAXVAL(wsdat%lat)
 1423       minLon=MINVAL(wsdat%lon)
 1424       maxLon=MAXVAL(wsdat%lon)
 1425                               
 1426       horizBorder=0
 1427       vertBorder=0
 1428       DO WHILE (checkCount.LE.(maxI*maxJ-3) )
 1429 !        From the direction (way) we were going before, find which direct>
 1430 !        are going now and how many 'step' we need to take
 
 
                                                         w3strkmd.F90  page  27
 
 
 1431          CALL findWay(way, horizStepCount, vertStepCount, &
 1432                       vertBorder, horizBorder, stepCount)
 1433          IF (first) THEN
 1434            m=0
 1435            DO k=1,LENGTH(wsdat%par(i,j)%hs, &
 1436                          SIZE(wsdat%par(i,j)%hs),9999.)
 1437                IF ( (wsdat%par(i,j)%hs(k).EQ.0.).AND. &
 1438                     (wsdat%par(i,j)%tp(k).EQ.0.) ) THEN
 1439                   wsdat%par(i,j)%sys(k)=-1
 1440                ELSE
 1441                   m=m+1
 1442                   wsdat%par(i,j)%sys(k)=m
 1443                END IF
 1444            END DO
 1445                  
 1446            wsdat%par(i,j)%checked=1
 1447            checkCount=checkCount+1
 1448            first=.FALSE.
 1449          END IF
 1450          DO sc = 1, stepCount
 1451              CALL findNext (i,j,maxI,maxJ,way,vertBorder,horizBorder)
 1452              IF ( wsdat%par(i,j)%checked.EQ.-1 ) THEN
 1453 !            Land point is one of our grid points, so we need to update c>
 1454                  checkCount=checkCount+1
 1455                  landPts=landPts+1
 1456 !                So that we don't count the land points twice....
 1457                  wsdat%par(i,j)%checked=-2
 1458              ELSE IF ( wsdat%par(i,j)%checked.EQ.0 ) THEN
 1459 !            Hasn't been checked yet and is not land point
 1460                  checkCount=checkCount+1
 1461                  CALL findSys(i, j, wsdat, maxSys, ngbrExt, maxI, maxJ, &
 1462                               perKnob, dirKnob, hsKnob)
 1463              END IF
 1464          END DO
 1465       END DO
 1466 !     wetPts% of wet points
 1467       maxPts=NINT(wetPts*(maxI*maxJ-1))
 1468 !
 1469       WRITE(20,*) 'Call combineWaveSystems...'
 1470       CALL combineWaveSystems(wsdat,maxSys,maxPts,maxI,maxJ, &
 1471                               perKnob,dirKnob,hsKnob,combine,sys)
 1472                                                                  
 1473       RETURN
 1474       END SUBROUTINE spiralTrackV3
 1475 !/ End of spiralTrackV3 ---------------------------------------------- /
 1476 !/
 1477 !/ ------------------------------------------------------------------- /
 1478       SUBROUTINE timeTrackingV2 (sysA       ,maxSys     ,tpTimeKnob  , &
 1479                                  dirTimeKnob,ts0        ,maxGroup    , &
 1480                                  dt         ,lonext     ,latext      , &
 1481                                  maxI       ,maxJ                    )
 1482 !/
 1483 !/                  +-----------------------------------+
 1484 !/                  | WAVEWATCH III           NOAA/NCEP |
 1485 !/                  |     A. J. van der Westhuysen      |
 
 
                                                         w3strkmd.F90  page  28
 
 
 1486 !/                  |            Jeff Hanson            |
 1487 !/                  |        Eve-Marie Devaliere        |
 1488 !/                  |                        FORTRAN 95 |
 1489 !/                  | Last update :          4-Jan-2013 |
 1490 !/                  +-----------------------------------+
 1491 !/
 1492 !/    03-Feb-2012 : Origination, based on Matlab code   ( version 4.05 )
 1493 !/                  by Jeff Hanson & Eve-Marie Devaliere
 1494 !/    04-Jan-2013 : Inclusion in trunk                  ( version 4.08 )
 1495 !/
 1496 !/    Copyright 2009-2013 National Weather Service (NWS),
 1497 !/       National Oceanic and Atmospheric Administration.  All rights
 1498 !/       reserved.  WAVEWATCH III is a trademark of the NWS.
 1499 !/       No unauthorized use without permission.
 1500 !/
 1501       IMPLICIT NONE
 1502 !
 1503 !  1. Purpose :
 1504 !
 1505 !     Performs the time tracking of the systems identified within
 1506 !     the subroutine spiralTrackV3.
 1507 !
 1508 !  2. Method
 1509 !
 1510 !     -
 1511 !
 1512 !  3. Parameters :
 1513 !
 1514 !     Parameter list
 1515 !     ----------------------------------------------------------------
 1516 !     Note: perKnob, dirKnob in Matlab version replaced by tpTimeKnob, di>
 1517 !
 1518 !     sysA        TYPE(timsys) in/out Final set of spatially and temporal>
 1519 !     dirTimeKnob    Real      input  Parameter in direction for combinin>
 1520 !     tpTimeKnob     Real      input  Parameter in period for combining f>
 1521 !     ts0            Int       input  Time step to which default grp valu>
 1522 !     maxSys         Int arr   input  Total number of systems per time le>
 1523 !     maxGroup       Int       output Maximum number of wave systems ("gr>
 1524 !     lonext         Real      input  Longitudinal extent of domain
 1525 !     latext         Real      input  Latitudinal extent of domain
 1526 !     maxI, maxJ     Int       input  Maximum indices of wave field
 1527 !
 1528       TYPE(timsys), POINTER :: sysA(:)
 1529       INTEGER, POINTER :: maxSys(:)
 1530       REAL         :: dirTimeKnob, tpTimeKnob
 1531       INTEGER      :: ts0, maxGroup
 1532       REAL         :: dt
 1533       REAL         :: lonext, latext
 1534       INTEGER      :: maxI, maxJ
 1535                                 
 1536       INTENT (IN) tpTimeKnob, dirTimeKnob, ts0, maxI, maxJ
 1537 !      INTENT (IN OUT) sysA
 1538       INTENT (OUT) maxGroup
 1539 !
 1540 !     Local variables
 
 
                                                         w3strkmd.F90  page  29
 
 
 1541 !     ----------------------------------------------------------------
 1542 !     ic        Int   Counter for wave systems
 1543 !     ts1       Int   Adjusted initial time step in case ts0 has only emp>
 1544 !
 1545       LOGICAL :: file_exists
 1546       CHARACTER :: dummy*23
 1547       TYPE(sysmemory) :: sysMem(50)
 1548       INTEGER :: leng, l, i, ii, j, k, kk, idir, numSys, &
 1549                  counter, new, DIFSIZE, tpMinInd, dirMinInd, used, ok
 1550       REAL    :: Tb,  deltaPer, deltaDir, tpMinVal, dirMinVal, &
 1551                  dirForTpMin, tpForDirMin
 1552       REAL, ALLOCATABLE :: sysOrdered(:), TEMP(:), dirs(:)
 1553       REAL, POINTER :: DIFARR(:)
 1554       INTEGER, ALLOCATABLE :: indSorted(:), alreadyUsed(:), allInd(:)
 1555       INTEGER, ALLOCATABLE :: ind(:), ind2(:)
 1556       INTEGER :: ts1
 1557       REAL, ALLOCATABLE :: GOF(:,:), GOFMinVal(:), GOFMinInd(:), &
 1558                            Tbsysmem(:), deltaDirsysmem(:), &
 1559                            deltaPersysmem(:),m1sysmem(:),m2sysmem(:)
 1560       REAL    :: m1, m2
 1561       REAL    :: lonmean, latmean, dmndiag
 1562       INTEGER :: npnts, npnts2
 1563       REAL, ALLOCATABLE :: mnlonlist(:), mnlatlist(:), mndist(:)
 1564       REAL, POINTER     :: dummy1(:),dummy2(:),dummy3(:)
 1565       INTEGER, ALLOCATABLE :: olsize(:)
 1566       REAL    :: TEMP1, TEMP2
 1567       INTEGER :: iii, jj, ll, idup
 1568 !
 1569 !  4. Subroutines used :
 1570 !
 1571 !      Name      Type  Module   Description
 1572 !     ----------------------------------------------------------------
 1573 !      SORT
 1574 !      SETDIFF
 1575 !
 1576 !  5. Subroutines calling
 1577 !
 1578 !     waveTracking_NWS_V2
 1579 !
 1580 !  6. Error messages :
 1581 !
 1582 !  7. Remarks :
 1583 !
 1584 !  8. Structure :
 1585 !
 1586 !     -
 1587 !
 1588 !  9. Switches :
 1589 !
 1590 !     None defined yet.
 1591 !
 1592 ! 10. Source code :
 1593 !
 1594 !/ ------------------------------------------------------------------- /
 1595                                                                         
 
 
                                                         w3strkmd.F90  page  30
 
 
 1596 !     Associate default grp value to time step 1
 1597       WRITE(20,*) 'TIME TRACKING'
 1598       WRITE(20,*) 'Inside timeTrackingV2: SIZE(sysA(1)%sys) =', &
 1599                     SIZE(sysA(1)%sys)
 1600       WRITE(20,*) 'Inside timeTrackingV2: maxSys(1) =',maxSys(1)
 1601       WRITE(20,*) 'ts0 = ',ts0
 1602                               
 1603       ts1 = ts0
 1604                
 1605 !     Skip initial time steps with empty systems (e.g. when starting from>
 1606       DO i = ts1, SIZE(sysA)
 1607          IF (SIZE(sysA(ts1)%sys).EQ.0) ts1 = ts1+1
 1608 !        No non-empty systems found
 1609          IF (ts1.GT.SIZE(sysA)) THEN
 1610             maxGroup = 0
 1611             GOTO 2000
 1612          END IF
 1613       END DO
 1614       WRITE(20,*) 'TS = ',ts1
 1615                              
 1616       IF (SIZE(sysA(ts1)%sys).GT.0) THEN
 1617 !        Initialize system memory groups
 1618          sysA(ts1)%sys(:)%grp = 9999
 1619          sysMem(:)%grp = 9999
 1620          sysMem(:)%nPoints = 0
 1621          sysMem(:)%lonMean = 9999.
 1622          sysMem(:)%latMean = 9999.
 1623          sysMem(:)%tpMean = 9999.
 1624          sysMem(:)%dirMean = 9999.
 1625          sysMem(:)%updated = -9999
 1626          sysMem(:)%length = 0
 1627          DO iii = 1,50
 1628             ALLOCATE(sysMem(iii)%indx(maxI*maxJ))
 1629             sysMem(iii)%indx = 9999
 1630          END DO
 1631                
 1632          INQUIRE(FILE="sys_restart.ww3", EXIST=file_exists)
 1633          IF (file_exists) THEN
 1634 !           Use groups from wave tracking hotfile
 1635             WRITE(20,*) '*** Using group memory hotfile'
 1636             OPEN(unit=12,file='sys_restart.ww3',status='old')
 1637             READ(12,'(A23,I10)') dummy,maxGroup
 1638             WRITE(20,*) 'Reading ',maxGroup,' systems'
 1639             DO k = 1,maxGroup
 1640                READ(12,'(A23,I10)') dummy,sysMem(k)%grp
 1641                READ(12,'(A23,I10)') dummy,sysMem(k)%nPoints
 1642                READ(12,'(A23,F10.4)') dummy,sysMem(k)%lonMean
 1643                READ(12,'(A23,F10.4)') dummy,sysMem(k)%latMean
 1644                READ(12,'(A23,F10.3)') dummy,sysMem(k)%tpMean
 1645                READ(12,'(A23,F10.3)') dummy,sysMem(k)%dirMean
[...]
 5111          STD = SQRT( 1/(REAL(N)-1)*SUM( (ARRAY(:)-MN)**2 ) )
 5112       ELSE
 5113          STD = 0.
 5114       END IF
 5115             
 
 
                                                         w3strkmd.F90  page  94
 
 
 5116       RETURN
 5117       END FUNCTION STD
 5118 !/ End of STD -------------------------------------------------------- /
 5119 !/
 5120       RECURSIVE SUBROUTINE QSORT(ARRAY,IDX,LO,HI)
 5121 !/
 5122 !/                  +-----------------------------------+
 5123 !/                  | WAVEWATCH III           NOAA/NCEP |
 5124 !/                  |            Stefan Zieger          |
 5125 !/                  |                        FORTRAN 95 |
 5126 !/                  | Last update :          6-Sep-2016 |
 5127 !/                  +-----------------------------------+
 5128 !/
 5129 !/    06-Sep-2016 : Origination, based on code by Mirko ( version 5.16 )
 5130 !/                  Velic (BoM, Australia)
 5131 !/
 5132 !/    Copyright 2009-2013 National Weather Service (NWS),
 5133 !/       National Oceanic and Atmospheric Administration.  All rights
 5134 !/       reserved.  WAVEWATCH III is a trademark of the NWS.
 5135 !/       No unauthorized use without permission.
 5136 !/
 5137 !
 5138 !  1. Purpose :
 5139 !
 5140 !     Quicksort algorithm.
 5141 !
 5142 !  2. Method
 5143 !
 5144 !  3. Parameters :
 5145 !
 5146 !     Parameter list
 5147 !     ----------------------------------------------------------------
 5148 !     ARRAY   REAL    ARR  in/out   Input array
 5149 !     IDX     REAL    ARR  in/out   Original indices of input array
 5150 !     LO      INTEGER      input    First element
 5151 !     HI      INTEGER      input    Last element
 5152 !
 5153       IMPLICIT NONE
 5154 !/
 5155       INTEGER, INTENT(IN) :: LO,HI
 5156       REAL,INTENT(INOUT)  :: ARRAY(:),IDX(:)
 5157 !/
 5158 !     Local variables
 5159 !     ----------------------------------------------------------------
 5160       LOGICAL :: LOOP
 5161       INTEGER :: TOP, BOT
 5162       REAL    :: VAL, TMP
 5163 !
 5164 !  4. Subroutines used :
 5165 !
 5166 !      Name      Type  Scope    Description
 5167 !     ----------------------------------------------------------------
 5168 !
 5169 !  5. Subroutines calling
 5170 !
 
 
                                                         w3strkmd.F90  page  95
 
 
 5171 !  6. Error messages :
 5172 !
 5173 !  7. Remarks :
 5174 !
 5175 !  8. Structure :
 5176 !
 5177 !  9. Switches :
 5178 !
 5179 ! 10. Source code :
 5180 !
 5181 !/ ------------------------------------------------------------------- /
 5182 !
 5183 !/    --- Check array size and bounds. ---
 5184       IF ( SIZE(ARRAY).EQ. 0 ) THEN
 5185         WRITE(6,199)
 5186         CALL ABORT
 5187       ELSE IF ( SIZE(ARRAY).NE.SIZE(IDX) ) THEN
 5188         WRITE(6,201)
 5189         CALL ABORT
 5190       ELSE IF ( LBOUND(ARRAY,1).GT.LO ) THEN
 5191         WRITE(6,203)
 5192         CALL ABORT
 5193       ELSE IF ( UBOUND(ARRAY,1).LT.HI ) THEN
 5194         WRITE(6,205)
 5195         CALL ABORT
 5196       END IF
 5197 !
 5198       TOP = LO
 5199       BOT = HI
 5200       VAL = ARRAY(INT((LO+HI)/2))
 5201 !
 5202       LOOP = .TRUE.
 5203       DO WHILE ( LOOP )
 5204         DO WHILE ( ARRAY(TOP).LT.VAL )
 5205           TOP = TOP + 1
 5206         END DO
 5207         DO WHILE ( VAL.LT.ARRAY(BOT) )
 5208           BOT = BOT - 1
 5209         END DO
 5210         IF ( TOP.LT.BOT ) THEN
 5211 !/        --- Swap values at indices TOP and BOT ---
 5212           TMP = ARRAY(TOP)
 5213           ARRAY(TOP) = ARRAY(BOT)
 5214           ARRAY(BOT) = TMP
 5215 !/        --- Swap index values at indices TOP and BOT ---
 5216           TMP = IDX(TOP)
 5217           IDX(TOP) = IDX(BOT)
 5218           IDX(BOT) = TMP
 5219 !
 5220           TOP = TOP + 1
 5221           BOT = BOT - 1
 5222         ELSE
 5223           LOOP = .FALSE.
 5224         END IF
 5225               
 
 
                                                         w3strkmd.F90  page  96
 
 
 5226       END DO
 5227             
 5228 !/    --- Recursive call quicksort ---
 5229       IF (LO.LT.TOP-1) CALL QSORT(ARRAY,IDX,LO,TOP-1)
 5230       IF (BOT+1.LT.HI) CALL QSORT(ARRAY,IDX,BOT+1,HI)
 5231 !
 5232       RETURN
 5233 !/
 5234   199 FORMAT (/' *** WAVEWATCH III ERROR IN W3SYSTRK : '/            &
 5235                '     QSORT ARRAY IS EMPTY'                           )
 5236   201 FORMAT (/' *** WAVEWATCH III ERROR IN W3SYSTRK : '/            &
 5237                '     QSORT ARRAY SIZE AND INDEX ARRAY SIZE MISMATCH' )
 5238   203 FORMAT (/' *** WAVEWATCH III ERROR IN W3SYSTRK : '/            &
 5239                '     QSORT ARRAY INDEX OUT OF LOWER BOUND'           )
 5240   205 FORMAT (/' *** WAVEWATCH III ERROR IN W3SYSTRK : '/            &
 5241                '     QSORT ARRAY INDEX OUT OF UPPER BOUND'           )
 5242 !/
 5243       END SUBROUTINE QSORT
 5244 !/ ------------------------------------------------------------------- /
 5245 !/
 5246       RECURSIVE SUBROUTINE QSORT_DESC(ARRAY,IDX,LO,HI)
 5247 !/
 5248 !/                  +-----------------------------------+
 5249 !/                  | WAVEWATCH III           NOAA/NCEP |
 5250 !/                  |            Stefan Zieger          |
 5251 !/                  |                        FORTRAN 95 |
 5252 !/                  | Last update :          6-Sep-2016 |
 5253 !/                  +-----------------------------------+
 5254 !/
 5255 !/    06-Sep-2016 : Origination, based on code by Mirko ( version 5.16 )
 5256 !/                  Velic (BoM, AUstralia)
 5257 !/
 5258 !/    Copyright 2009-2013 National Weather Service (NWS),
 5259 !/       National Oceanic and Atmospheric Administration.  All rights
 5260 !/       reserved.  WAVEWATCH III is a trademark of the NWS.
 5261 !/       No unauthorized use without permission.
 5262 !/
 5263 !
 5264 !  1. Purpose :
 5265 !
 5266 !     Quicksort algorithm with descending sort order.
 5267 !
 5268 !  2. Method
 5269 !
 5270 !  3. Parameters :
 5271 !
 5272 !     Parameter list
 5273 !     ----------------------------------------------------------------
 5274 !     ARRAY   REAL    ARR  in/out   Input array
 5275 !     LO      INTEGER      input    First element
 5276 !     HI      INTEGER      input    Last element
 5277 !
 5278       IMPLICIT NONE
 5279 !/
 5280       INTEGER, INTENT(IN) :: LO,HI
 
 
                                                         w3strkmd.F90  page  97
 
 
 5281       REAL,INTENT(INOUT)  :: ARRAY(:),IDX(:)
 5282 !/
 5283 !     Local variables
 5284 !     ----------------------------------------------------------------
 5285       INTEGER :: TOP, BOT, I
 5286       REAL    :: VAL, TMP
 5287       LOGICAL :: LOOP
 5288 !
 5289 !  4. Subroutines used :
 5290 !
 5291 !      Name      Type  Scope    Description
 5292 !     ----------------------------------------------------------------
 5293 !
 5294 !  5. Subroutines calling
 5295 !
 5296 !  6. Error messages :
 5297 !
 5298 !  7. Remarks :
 5299 !
 5300 !  8. Structure :
 5301 !
 5302 !  9. Switches :
 5303 !
 5304 ! 10. Source code :
 5305 !
 5306 !/ ------------------------------------------------------------------- /
 5307 !
 5308 !/    --- Check array size and bounds. ---
 5309       IF ( SIZE(ARRAY).EQ. 0 ) THEN
 5310         WRITE(6,199)
 5311         CALL ABORT
 5312       ELSE IF ( SIZE(ARRAY).NE.SIZE(IDX) ) THEN
 5313         WRITE(6,201)
 5314         CALL ABORT
 5315       ELSE IF ( LBOUND(ARRAY,1).GT.LO ) THEN
 5316         WRITE(6,203)
 5317         CALL ABORT
 5318       ELSE IF ( UBOUND(ARRAY,1).LT.HI ) THEN
 5319         WRITE(6,205)
 5320         CALL ABORT
 5321       END IF
 5322 !
 5323       TOP = LO
 5324       BOT = HI
 5325       VAL = ARRAY(INT((LO+HI)/2))
 5326 !
 5327       LOOP = .TRUE.
 5328       DO WHILE ( LOOP )
 5329         DO WHILE ( ARRAY(TOP).GT.VAL )
 5330           TOP = TOP + 1
 5331         END DO
 5332         DO WHILE ( VAL.GT.ARRAY(BOT) )
 5333           BOT = BOT - 1
 5334         END DO
 5335         IF ( TOP.LT.BOT ) THEN
 
 
                                                         w3strkmd.F90  page  98
 
 
 5336 !/        --- Swap values at indices TOP and BOT ---
 5337           TMP = ARRAY(TOP)
 5338           ARRAY(TOP) = ARRAY(BOT)
 5339           ARRAY(BOT) = TMP
 5340 !/        --- Swap index values at indices TOP and BOT ---
 5341           TMP = IDX(TOP)
 5342           IDX(TOP) = IDX(BOT)
 5343           IDX(BOT) = TMP
 5344 !
 5345           TOP = TOP + 1
 5346           BOT = BOT - 1
 5347         ELSE
 5348           LOOP = .FALSE.
 5349         END IF
 5350               
 5351       END DO
 5352 !/    --- Recursive call quicksort ---
 5353       IF (LO.LT.TOP-1) CALL QSORT_DESC(ARRAY,IDX,LO,TOP-1)
 5354       IF (BOT+1.LT.HI) CALL QSORT_DESC(ARRAY,IDX,BOT+1,HI)
 5355 !
 5356       RETURN
 5357 !/
 5358   199 FORMAT (/' *** WAVEWATCH III ERROR IN W3SYSTRK : '/            &
 5359                '     QSORT ARRAY IS EMPTY'                           )
 5360   201 FORMAT (/' *** WAVEWATCH III ERROR IN W3SYSTRK : '/            &
 5361                '     QSORT ARRAY SIZE AND INDEX ARRAY SIZE MISMATCH' )
 5362   203 FORMAT (/' *** WAVEWATCH III ERROR IN W3SYSTRK : '/            &
 5363                '     QSORT ARRAY INDEX OUT OF LOWER BOUND'           )
 5364   205 FORMAT (/' *** WAVEWATCH III ERROR IN W3SYSTRK : '/            &
 5365                '     QSORT ARRAY INDEX OUT OF UPPER BOUND'           )
 5366 !/
 5367       END SUBROUTINE QSORT_DESC
 5368 !/ ------------------------------------------------------------------- /
 5369 !/
 5370       FUNCTION SWAPI4(INT4) RESULT(INT4SWP)
 5371 !/
 5372 !/                  +-----------------------------------+
 5373 !/                  | WAVEWATCH III           NOAA/NCEP |
 5374 !/                  |           S. Zieger               |
 5375 !/                  |                        FORTRAN 90 |
 5376 !/                  | Last update :         03-Jan-2017 |
 5377 !/                  +-----------------------------------+
 5378 !/
 5379 !/    03-Jan-2017 : Origination                         ( version 5.16 )
 5380 !/                                                        (S. Zieger)
 5381 !/
 5382 !  1. Purpose :
 5383 !
 5384 !     Return a Byte-swapped integer (size of 4 bytes)
 5385 !
 5386 !  2. Source code :
 5387 !
 5388 !/ ------------------------------------------------------------------- /
 5389       IMPLICIT NONE
 5390       INTEGER(KIND=4), INTENT(IN)  :: INT4
 
 
                                                         w3strkmd.F90  page  99
 
 
 5391       INTEGER(KIND=4)              :: INT4SWP
 5392 !/
 5393 !     Local variables
 5394 !     ----------------------------------------------------------------
 5395       INTEGER(KIND=1), DIMENSION(4) :: BYTEIN, BYTEOUT
 5396 !/
 5397       BYTEIN  = TRANSFER(INT4, BYTEIN)
 5398       BYTEOUT = (/BYTEIN(4),BYTEIN(3),BYTEIN(2),BYTEIN(1)/)
 5399       INT4SWP = TRANSFER(BYTEOUT, INT4SWP)
 5400 !/
 5401       RETURN
 5402 !/
 5403       END FUNCTION SWAPI4
 5404 !/ ------------------------------------------------------------------- /
 5405       SUBROUTINE findIJV4 (a   ,b   ,maxI,  maxJ ,indA ,indB )
 5406 !/
 5407 !/                  +-----------------------------------+
 5408 !/                  | WAVEWATCH III           NOAA/NCEP |
 5409 !/                  |     A. J. van der Westhuysen      |
 5410 !/                  |            Jeff Hanson            |
 5411 !/                  |        Eve-Marie Devaliere        |
 5412 !/                  |                        FORTRAN 95 |
 5413 !/                  | Last update :         03-Mar-2017 |
 5414 !/                  +-----------------------------------+
 5415 !/
 5416 !/    03-Feb-2012 : Origination, based on Matlab code   ( version 4.05 )
 5417 !/                  by Jeff Hanson & Eve-Marie Devaliere
 5418 !/    04-Jan-2013 : Inclusion in trunk                  ( version 4.08 )
 5419 !/    03-Mar-2017 : Calls to INTERSECT and UNION        ( version 5.16 )
 5420 !/                  replaced  (S. Zieger, BoM, Australia)
 5421 !/
 5422 !/    Copyright 2009-2013 National Weather Service (NWS),
 5423 !/       National Oceanic and Atmospheric Administration.  All rights
 5424 !/       reserved.  WAVEWATCH III is a trademark of the NWS.
 5425 !/       No unauthorized use without permission.
 5426 !/
 5427       IMPLICIT NONE
 5428 !
 5429 !  1. Purpose :
 5430 !
 5431 !     Find a(i,j) indices of system "a" that lie over or along the
 5432 !     fringes of system "b".
 5433 !
 5434 !  2. Method
 5435 !
 5436 !     (i)  Use an index matrix to map locations of wave systems in B
 5437 !     (ii) Avoid multiple use of INTERSECT and UNION as in findIJV3
 5438 !
 5439 !  3. Parameters :
 5440 !
 5441 !     Parameter list
 5442 !     ----------------------------------------------------------------
 5443 !     a, b    Type(system)  input   Final set of tracked systems, for one>
 5444 !     maxI         Int      input   Number rows indices of wave field
 5445 !     maxJ         Int      input   Number column indices of wave field
 
 
                                                         w3strkmd.F90  page 100
 
 
 5446 !     indA*, indB* Int.A.   output  Pointer array of indices for combinin>
 5447 !
 5448       TYPE(system) :: a, b
 5449       INTEGER      :: maxI, maxJ
 5450       INTEGER, POINTER :: indA(:), indB(:)
 5451 !
 5452       INTENT (IN) a, b, maxI,maxJ
 5453 !
 5454 !     Local variables
 5455 !     ----------------------------------------------------------------
 5456 !     posB         Int              Neighbour index
 5457 !     posB_MM      Int              Neighbour index (-1,-1)
 5458 !     posB_MP      Int              Neighbour index (-1,+1)
 5459 !     posB_PM      Int              Neighbour index (+1,-1)
 5460 !     posB_PP      Int              Neighbour index (+1,+1)
 5461 !     tmpA*, tmpB* Int.A.           Array of indices for combining
 5462 !     systems
 5463 !
 5464       INTEGER      :: LENG_AI,LENG_BI
 5465       INTEGER      :: OUTA,OUTB,I,J,IND,OUTDUMB
 5466       INTEGER      :: POSB,POSB_MM,POSB_PM,POSB_MP,POSB_PP
 5467       INTEGER      :: IND_B2(maxI,maxJ)
 5468       REAL,ALLOCATABLE :: TMPA(:),DUMA(:),TMPB(:)
 5469       REAL,POINTER     :: DUMB(:)
 5470       LOGICAL      :: FOUND
 5471 !
 5472 !  4. Subroutines used :
 5473 !
 5474 !      Name      Type  Scope    Description
 5475 !     ----------------------------------------------------------------
 5476 !      QSORT     Subr. Private  Quicksort algorithm
 5477 !      UNIQUE    Subr. Private  Return sorted unique numbers of an array
 5478 !
 5479 !  5. Subroutines calling
 5480 !
 5481 !  6. Error messages :
 5482 !
 5483 !  7. Remarks :
 5484 !
 5485 !  8. Structure :
 5486 !
 5487 !  9. Switches :
 5488 !
 5489 ! 10. Source code :
 5490 !
 5491 !/ ------------------------------------------------------------------- /
 5492 !
 5493       NULLIFY(DUMB)
 5494 !
 5495       IF (ASSOCIATED(INDA)) DEALLOCATE(INDA)
 5496       IF (ASSOCIATED(INDB)) DEALLOCATE(INDB)
 5497 !
 5498       LENG_AI = LENGTH(REAL(a%i),SIZE(a%i),REAL(9999))
 5499       LENG_BI = LENGTH(REAL(b%i),SIZE(b%i),REAL(9999))
 5500 !
 
 
                                                         w3strkmd.F90  page 101
 
 
 5501       ALLOCATE(TMPA(LENG_AI))
 5502       ALLOCATE(TMPB(5*LENG_AI))
 5503 !
 5504       TMPA(:) = 9999.
 5505       TMPB(:) = 9999.
 5506 !
 5507       OUTA = 0
 5508       OUTB = 0
 5509       IND_B2(:,:) = 0
 5510 !
 5511       DO IND=1,LENG_BI
 5512         I = B%I(IND)
 5513         J = B%J(IND)
 5514         IF (IND_B2(I,J).EQ.0) IND_B2(I,J) = IND
 5515       END DO
 5516 !
 5517       DO IND=1,LENG_AI
 5518         I = A%I(IND)
 5519         J = A%J(IND)
 5520         POSB = IND_B2(I,J)
 5521         POSB_MM = 0
 5522         POSB_PP = 0
 5523         POSB_MP = 0
 5524         POSB_PM = 0
 5525         IF (I.GT.1.AND.J.GT.1)       POSB_MM = IND_B2(i-1,j-1)
 5526         IF (I.GT.1.AND.J.LT.MAXJ)    POSB_MP = IND_B2(i-1,j+1)
 5527         IF (I.LT.MAXI.AND.J.LT.MAXJ) POSB_PP = IND_B2(i+1,j+1)
 5528         IF (I.LT.MAXI.AND.J.GT.1)    POSB_PM = IND_B2(i+1,j-1)
 5529                                                               
 5530         FOUND = .FALSE.
 5531         IF (POSB.NE.0) THEN
 5532           OUTB = OUTB + 1
 5533           TMPB(OUTB) = REAL(POSB)
 5534           IF (.NOT.FOUND) THEN
 5535             OUTA = OUTA + 1
 5536             TMPA(OUTA) = REAL(IND)
 5537             FOUND = .TRUE.
 5538           END IF
 5539         END IF
 5540         IF (POSB_MM.NE.0) THEN
 5541           OUTB = OUTB + 1
 5542           TMPB(OUTB) = REAL(POSB_MM)
 5543           IF (.NOT.FOUND) THEN
 5544             OUTA = OUTA + 1
 5545             TMPA(OUTA) = REAL(IND)
 5546             FOUND = .TRUE.
 5547           END IF
 5548         END IF
 5549         IF (POSB_MP.NE.0) THEN
 5550           OUTB = OUTB + 1
 5551           TMPB(OUTB) = REAL(POSB_MP)
 5552           IF (.NOT.FOUND) THEN
 5553             OUTA = OUTA + 1
 5554             TMPA(OUTA) = REAL(IND)
 5555             FOUND = .TRUE.
 
 
                                                         w3strkmd.F90  page 102
 
 
 5556           END IF
 5557         END IF
 5558         IF (POSB_PM.NE.0) THEN
 5559           OUTB = OUTB + 1
 5560           TMPB(OUTB) = REAL(POSB_PM)
 5561           IF (.NOT.FOUND) THEN
 5562             OUTA = OUTA + 1
 5563             TMPA(OUTA) = REAL(IND)
 5564             FOUND = .TRUE.
 5565           END IF
 5566         END IF
 5567         IF (POSB_PP.NE.0) THEN
 5568           OUTB = OUTB + 1
 5569           TMPB(OUTB) = REAL(POSB_PP)
 5570           IF (.NOT.FOUND) THEN
 5571             OUTA = OUTA + 1
 5572             TMPA(OUTA) = REAL(IND)
 5573             FOUND = .TRUE.
 5574           END IF
 5575         END IF
 5576               
 5577       END DO
 5578 !
 5579 !/    Compact indices for wave systems in B.
 5580 !/    Check for empty arrays first.
 5581       IF (OUTB.GT.0) THEN
 5582         CALL UNIQUE(TMPB,OUTB,DUMB,OUTDUMB)
 5583         OUTB = OUTDUMB
 5584       END IF
 5585       ALLOCATE(INDB(OUTB))
 5586       IF (OUTB.GT.0) INDB(1:OUTB) = INT(DUMB(1:OUTB))
 5587       IF (ASSOCIATED(DUMB)) DEALLOCATE(DUMB)
 5588 !
 5589 !/    Allocate output array and transfer content
 5590 !/    for wave systems in A.
 5591       ALLOCATE(INDA(OUTA))
 5592       IF (OUTA.GT.0) THEN
 5593         ALLOCATE(DUMA(OUTA))
 5594         DUMA(:) = 0
 5595         CALL QSORT(TMPA(1:OUTA),DUMA(1:OUTA),1,OUTA)
 5596         IF (ALLOCATED(DUMA)) DEALLOCATE(DUMA)
 5597         INDA(1:OUTA) = INT(TMPA(1:OUTA))
 5598       END IF
 5599 !/
 5600       IF (ALLOCATED(TMPA)) DEALLOCATE(TMPA)
 5601       IF (ALLOCATED(TMPB)) DEALLOCATE(TMPB)
 5602 !/
 5603       RETURN
 5604 !/
 5605       END SUBROUTINE findIJV4
 5606 !/ End of findIJV4 --------------------------------------------------- /
 5607 !/
 5608 !/ ------------------------------------------------------------------- /
 5609 !/
 5610       END MODULE W3STRKMD
 
 
                                                         w3strkmd.F90  page 103
 
 
 5611 !/
 5612 !/ End of module W3STRKMD -------------------------------------------- /
 5613 !/
------------
ftn -c -module /home/luciano.pezzi/COAWST.V3.7/WW3/model/mod -g -i4 -r4 -Kieee -byteswapio -O3  -O3 -I/home/luciano.pezzi/COAWST.V3.7/WW3/model/mod_MPI -I/home/luciano.pezzi/COAWST.V3.7/Lib/MCT/pgi/include -I/home/luciano.pezzi/COAWST.V3.7//WRF/main -I/home/luciano.pezzi/COAWST.V3.7//WRF/external/esmf_time_f90 -I/home/luciano.pezzi/COAWST.V3.7//WRF/frame -I/home/luciano.pezzi/COAWST.V3.7//WRF/share -I/home/luciano.pezzi/COAWST.V3.7/Lib/MCT/pgi/include -I/home/luciano.pezzi/COAWST.V3.7/Build -I/opt/cray/netcdf-hdf5parallel/4.2.0/pgi/119/include -I/home/luciano.pezzi/COAWST.V3.7/WW3/model/ftn  
------------
------------
------------
