                                                         ww3_ounp.F90  page   1
 
 
    1 #include "w3macros.h"
    2 !/ ------------------------------------------------------------------- /
    3       PROGRAM W3OUNP
    4 !/
    5 !/                  +-----------------------------------+
    6 !/                  | WAVEWATCH III           NOAA/NCEP |
    7 !/                  |           F. Ardhuin              |
    8 !/                  |           M. Accensi              |
    9 !/                  |                        FORTRAN 90 |
   10 !/                  | Last update :         15-May-2018 |
   11 !/                  +-----------------------------------+
   12 !/
   13 !/    14-Jan-1999 : Final FORTRAN 77                    ( version 1.18 )
   14 !/    21-Jan-2000 : Upgrade to FORTRAN 90               ( version 2.00 )
   15 !/    14-Feb-2000 : Exact nonlinear interactions        ( version 2.01 )
   16 !/    09-Jan-2001 : U* bug fix in tabular output        ( version 2.05 )
   17 !/    25-Jan-2001 : Flat grid version                   ( version 2.06 )
   18 !/    02-Feb-2001 : Xnl version 3.0                     ( version 2.07 )
   19 !/    11-Jun-2001 : Clean up                            ( version 2.11 )
   20 !/    11-Oct-2001 : Clean up, X*, Y* in tables          ( version 2.14 )
   21 !/    13-Nov-2002 : Add stress vector                   ( version 3.00 )
   22 !/    27-Nov-2002 : First version of VDIA and MDIA      ( version 3.01 )
   23 !/    24-Dec-2004 : Multiple grid version.              ( version 3.06 )
   24 !/    17-Apr-2006 : Filter for directional spread.      ( version 3.09 )
   25 !/    23-Jun-2006 : Linear input added.                 ( version 3.09 )
   26 !/    28-Jun-2006 : Adding file name preamble.          ( version 3.09 )
   27 !/    03-Jul-2006 : Separate flux modules.              ( version 3.09 )
   28 !/    28-Oct-2006 : Add partitioning option.            ( version 3.10 )
   29 !/    24-Mar-2007 : Add pars for entire spectrum.       ( version 3.11 )
   30 !/    25-Apr-2007 : Battjes-Janssen Sdb added.          ( version 3.11 )
   31 !/                  (J. H. Alves)
   32 !/    08-Aug-2007 : Creation of buoy log file added     ( version 3.12 )
   33 !/                  (switch O14 -- A. Chawla)
   34 !/    09-Oct-2007 : WAM 4+ Sin and Sds added.           ( version 3.13 )
   35 !/                  (F. Ardhuin)
   36 !/    09-Oct-2007 : Experimental Sbs (BS1) added.       ( version 3.13 )
   37 !/                  (F. Ardhuin)
   38 !/    09-Apr-2008 : Adding an additional output for     ( version 3.12 )
   39 !/                  WMO standard (A. Chawla)
   40 !/    29-Apr-2008 : Adjust format partition output.     ( version 3.14 )
   41 !/    29-May-2009 : Preparing distribution version.     ( version 3.14 )
   42 !/    30-Oct-2009 : Implement run-time grid selection.  ( version 3.14 )
   43 !/                  (W. E. Rogers & T. J. Campbell, NRL)
   44 !/    24-Mar-2011 : Adaptation to NetCDF (M. Accensi)   ( version 4.04 )
   45 !/    16-Jul-2011 : NC3 / NC4 switch     (M. Accensi)   ( version 4.05 )
   46 !/    14-Mar-2013 : Writing optimization (M. Accensi)   ( version 4.09 )
   47 !/    04-Jun-2014 : Correct bug TOGETHER (M. Accensi)   ( version 5.00 )
   48 !/    04-Jun-2014 : Update use of date   (M. Accensi)   ( version 5.00 )
   49 !/    13-Jun-2014 : Dimension order opt. (M. Accensi)   ( version 5.00 )
   50 !/    18-Jun-2014 : add mpi implementat. (M. Accensi)   ( version 5.00 )
   51 !/    27-Aug-2015 : Sice add as additional output       ( version 5.10 )
   52 !/                  (in source terms)
   53 !/    15-May-2018 : Add namelist feature                ( version 6.05 )
   54 !/    18-Aug-2018 : S_{ice} IC5 (Q. Liu)                ( version 6.06 )
   55 !/    18-Jun-2020 : Support for 360-day calendar.       ( version 7.08 )
 
 
                                                         ww3_ounp.F90  page   2
 
 
   56 !/
   57 !/    Copyright 2009 National Weather Service (NWS),
   58 !/       National Oceanic and Atmospheric Administration.  All rights
   59 !/       reserved.  WAVEWATCH III is a trademark of the NWS.
   60 !/       No unauthorized use without permission.
   61 !/
   62 !  1. Purpose :
   63 !
   64 !     Post-processing of point output.
   65 !
   66 !  2. Method :
   67 !
   68 !     Data is read from the grid output file out_pnt.ww3 (raw data)
   69 !     and from the file ww3_ounp.nml or ww3_ounp.inp ( NDSI).
   70 !     Model definition and raw data files are read using WAVEWATCH III
   71 !     subroutines.
   72 !
   73 !  3. Parameters :
   74 !
   75 !  4. Subroutines used :
   76 !
   77 !      Name      Type  Module   Description
   78 !     ----------------------------------------------------------------
   79 !      W3NMOD    Subr. W3GDATMD Set number of model.
   80 !      W3SETG    Subr.   Id.    Point to selected model.
   81 !      W3NDAT    Subr. W3WDATMD Set number of model for wave data.
   82 !      W3SETW    Subr.   Id.    Point to selected model for wave data.
   83 !      W3NAUX    Subr. W3ADATMD Set number of model for aux data.
   84 !      W3SETA    Subr.   Id.    Point to selected model for aux data.
   85 !      W3NOUT    Subr. W3ODATMD Set number of model for output.
   86 !      W3SETO    Subr.   Id.    Point to selected model for output.
   87 !      ITRACE    Subr. W3SERVMD Subroutine tracing initialization.
   88 !      STRACE    Subr.   Id.    Subroutine tracing.
   89 !      NEXTLN    Subr.   Id.    Get next line from input filw
   90 !      EXTCDE    Subr.   Id.    Abort program as graceful as possible.
   91 !      STME21    Subr. W3TIMEMD Convert time to string.
   92 !      TICK21    Subr.   Id.    Advance time.
   93 !      DSEC21    Func.   Id.    Difference between times.
   94 !      W3IOGR    Subr. W3IOGRMD Reading/writing model definition file.
   95 !      W3IOPO    Subr. W3IOPOMD Reading/writing raw point output file.
   96 !      W3EXNC    Subr. Internal Execute point output.
   97 !     ----------------------------------------------------------------
   98 !
   99 !  5. Called by :
  100 !
  101 !     None, stand-alone program.
  102 !
  103 !  6. Error messages :
  104 !
  105 !     Checks on input, checks in W3IOxx.
  106 !
  107 !  7. Remarks :
  108 !
  109 !     - Tables written to file 'tabNN.ww3', where NN is the
  110 !       unit umber (NDSTAB).
 
 
                                                         ww3_ounp.F90  page   3
 
 
  111 !     - Transfer file written to ww3.yymmddhh.spc with multiple
  112 !       spectra and times in file. yymmddhh relates to first
  113 !       output (NDSTAB).
  114 !     - !/IC1 !/IC2 !/IC3 !/IC5 are not included in dissipation term
  115 !       FIXME: ICE is a dummy variable at the moment
  116 !              Include ice parameters in point output file out_pnt.ww3
  117 !              Ice coupling to SIN, SDS and SIC similar to w3srcemd.ftn
  118 !
  119 !  8. Structure :
  120 !
  121 !     See source code.
  122 !
  123 !     TOUT is the time defined in the input file
  124 !     TIME is the time read from the out_pnt.ww3 file
  125 !     DTREQ is the stride used for the time steps
  126 !     at the beginning, if TOUT is after TIME, the program will read
  127 !     out_pnt.ww3 DTREQ by DTREQ until TIME is equal to TOUT
  128 !     /!\ if DTREQ is too big, it's possible to never have TIME=TOUT /!\
  129 !
  130 !     PASTDATE is the date of the last time step
  131 !     DATE is the date of the current time step
  132 !     IOUT is the counter of time iteration of a same file
  133 !
  134 !     MFL is the number of stations processed in the 'time' loop
  135 !     NOPTS is the total number of stations defined in out_pnt.ww3
  136 !     NFL is the number of bunch of MFL stations to loop on to
  137 !     process all the NOPTS stations
  138 !     NREQ is the number of valid stations to process, unvalid stations
  139 !     are duplicata or stations not specified in the input file
  140 !
  141 !  9. Switches :
  142 !
  143 !       !/S    Enable subroutine tracing.
  144 !
  145 !       !/NCO  NCEP NCO modifications for operational implementation.
  146 !
  147 !       !/O14  Buoy log file generation.
  148 !
  149 ! 10. Source code :
  150 !
  151 !/ ------------------------------------------------------------------- /
  152       USE CONSTANTS
  153 !/
  154 !     USE W3GDATMD, ONLY: W3NMOD, W3SETG
  155       USE W3WDATMD, ONLY: W3SETW, W3NDAT
  156       USE W3ADATMD, ONLY: W3SETA, W3NAUX
  157       USE W3ODATMD, ONLY: W3SETO, W3NOUT
  158       USE W3ODATMD, ONLY: IAPROC, NAPROC, NAPERR, NAPOUT, DIMP
  159       USE W3IOGRMD, ONLY: W3IOGR
  160       USE W3IOPOMD, ONLY: W3IOPO
  161       USE W3SERVMD, ONLY : ITRACE, NEXTLN, EXTCDE, STRSPLIT
  162       USE W3TIMEMD, ONLY: CALTYPE, STME21, TICK21, DSEC21, T2D, TSUB, U2D
  163 !/
  164       USE W3GDATMD
  165       USE W3WDATMD, ONLY: TIME
 
 
                                                         ww3_ounp.F90  page   4
 
 
  166       USE W3ODATMD, ONLY: NDSE, NDSO, NOPTS, PTLOC, PTNME,     &
  167                           DPO, WAO, WDO, ASO, CAO, CDO, SPCO, FNMPRE,&
  168                           IPASS => IPASS2, ICEFO, ICEO, ICEHO
  169 !
  170       USE W3NMLOUNPMD
  171       USE NETCDF
  172 !
  173       IMPLICIT NONE
  174 !
  175 !/
  176 !/ ------------------------------------------------------------------- /
  177 !/ Local parameters
  178 !/
  179       TYPE(NML_POINT_T)       :: NML_POINT
  180       TYPE(NML_FILE_T)        :: NML_FILE
  181       TYPE(NML_SPECTRA_T)     :: NML_SPECTRA
  182       TYPE(NML_PARAM_T)       :: NML_PARAM
  183       TYPE(NML_SOURCE_T)      :: NML_SOURCE
  184 !
  185       INTEGER                 :: NDSI, NDSM, NDSOP,  NDSTRC, NTRACE,  &
  186                                  IERR, I, NOUT, NREQ, ITYPE, OTYPE,   &
  187                                  IPOINT, IOTEST, ITH, IOUT, J, DIMXP, &
  188                                  ICODE, STRL, STRL2, FLWW3, NBFILEOUT,&
  189                                  S5, S3, NBSTATION, NCTYPE,           &
  190                                  NCFLUSH, NFL, MFL, IFL, NREQL, NOUTL,&
  191                                  NDSEN, ONE, TWO, IRET, IP
  192       INTEGER                 :: ISCALE = 0
  193       INTEGER                 :: DIMID(7), DIMLN(5), VARID(28),       &
  194                                  STARTDATE(8), STOPDATE(8),           &
  195                                  TOUT(2), TDUM(2), TOUTL(2)
  196 !
  197       INTEGER, ALLOCATABLE    :: INDREQ(:), INDREQTMP(:)
  198       INTEGER,ALLOCATABLE     :: NCID(:)
  199 !
  200       REAL                    :: DTREQ, SCALE1, SCALE2, DTEST
  201       REAL                    :: M2KM
  202       REAL                    :: DTHD,RTH0
  203 !
  204       REAL,ALLOCATABLE        :: THD(:)
  205       REAL, ALLOCATABLE       :: XPART(:,:)
  206 !
  207       CHARACTER(LEN=16)            :: DATE, PASTDATE
  208       CHARACTER(LEN=30)            :: FILEPREFIX, STRSTARTDATE, STRSTOPDA>
  209       CHARACTER                    :: COMSTR*1, IDTIME*23, IDDDAY*11,    >
  210                                       FILETIME*16, GLOBALATT*120,        >
  211                                       ATTNAME*120, ATTVAL*120
  212       CHARACTER(LEN=20)            :: FORMAT1
  213       CHARACTER(LEN=8)             :: EXT
  214       CHARACTER(LEN=128)           :: NCNAME
  215       CHARACTER(LEN=25)            :: IDSRCE(7)
  216 !
  217       CHARACTER(LEN=100),ALLOCATABLE      :: POINTLIST(:)
  218       CHARACTER(LEN=128),ALLOCATABLE      :: NCFILE(:)
  219 !
  220       LOGICAL                 :: FLSRCE(7)
 
 
                                                         ww3_ounp.F90  page   5
 
 
  221       LOGICAL                 :: TOGETHER, ORDER, FLGNML
  222       LOGICAL, ALLOCATABLE    :: FLREQ(:)
  223 !
  224 !/
  225 !/ ------------------------------------------------------------------- /
  226 !/
  227       DATA IDSRCE / 'Spectrum                 ' ,                     &
  228                     'Wind-wave interactions   ' ,                     &
  229                     'Nonlinear interactions   ' ,                     &
  230                     'Dissipation              ' ,                     &
  231                     'Wave-bottom interactions ' ,                     &
  232                     'Wave-ice interactions    ' ,                     &
  233                     'Sum of selected sources  ' /
  234       FLSRCE = .FALSE.
  235 !
  236 !--- - - - - - - - - - - - - - - - - - - - - - - - - - - - - - - - - -
  237 ! 1.a  IO set-up.
  238 !
  239       CALL W3NMOD ( 1, 6, 6 )
  240       CALL W3SETG ( 1, 6, 6 )
  241       CALL W3NDAT (    6, 6 )
  242       CALL W3SETW ( 1, 6, 6 )
  243       CALL W3NAUX (    6, 6 )
  244       CALL W3SETA ( 1, 6, 6 )
  245       CALL W3NOUT (    6, 6 )
  246       CALL W3SETO ( 1, 6, 6 )
  247 !
  248       NDSI   = 10
  249       NDSM   = 20
  250       NDSOP  = 20
  251 !
  252       NDSTRC =  6
  253       NTRACE = 10
  254       CALL ITRACE ( NDSTRC, NTRACE )
  255 !
  256 ! 1.b MPP initializations
  257 !
  258       NAPROC = 1
  259       IAPROC = 1
  260 !
  261       IF ( IAPROC .EQ. NAPERR ) THEN
  262           NDSEN  = NDSE
  263         ELSE
  264           NDSEN  = -1
  265         END IF
  266 !
  267       IF ( IAPROC .EQ. NAPOUT ) WRITE (NDSO,900)
  268 !
  269 !--- - - - - - - - - - - - - - - - - - - - - - - - - - - - - - - - - -
  270 ! 2.  Read model definition file.
  271 !
  272       CALL W3IOGR ( 'READ', NDSM )
  273       IF ( IAPROC .EQ. NAPOUT ) WRITE (NDSO,920) GNAME
  274 !
  275       IF ( FLAGLL ) THEN
 
 
                                                         ww3_ounp.F90  page   6
 
 
  276         M2KM = 1.
  277       ELSE
  278         M2KM = 1.E-3
  279       END IF
  280 !
  281       DIMXP  = ((NK+1)/2) * ((NTH-1)/2)
  282       ALLOCATE ( XPART(DIMP,0:DIMXP) )
  283       XPART = UNDEF
  284 !
  285 !--- - - - - - - - - - - - - - - - - - - - - - - - - - - - - - - - - -
  286 ! 3.  Read general data and first fields from file
  287 !
  288       CALL W3IOPO ( 'READ', NDSOP, IOTEST )
  289 !
  290       IF ( IAPROC .EQ. NAPOUT ) WRITE (NDSO,930)
  291       DO I=1, NOPTS
  292         IF ( FLAGLL ) THEN
  293           IF ( IAPROC .EQ. NAPOUT ) WRITE (NDSO,931) PTNME(I), M2KM*PTLOC>
  294         ELSE
  295           IF ( IAPROC .EQ. NAPOUT ) WRITE (NDSO,932) PTNME(I), M2KM*PTLOC>
  296         END IF
  297       END DO
  298 !
  299 !--- - - - - - - - - - - - - - - - - - - - - - - - - - - - - - - - - -
  300 ! 4.  Read requests from input file.
  301 !
  302  
  303 !
  304 ! process ww3_ounp namelist
  305 !
  306       INQUIRE(FILE=TRIM(FNMPRE)//"ww3_ounp.nml", EXIST=FLGNML)
  307       IF (FLGNML) THEN
  308         ! Read namelist
  309         CALL W3NMLOUNP (NDSI, TRIM(FNMPRE)//'ww3_ounp.nml', NML_POINT, NM>
  310                         NML_SPECTRA, NML_PARAM, NML_SOURCE, IERR)
  311                                                                  
  312 ! 4.1 Time setup IDTIME, DTREQ, NOUT
  313         READ(NML_POINT%TIMESTRIDE, *)  DTREQ
  314         READ(NML_POINT%TIMECOUNT, *)   NOUT
  315         READ(NML_POINT%TIMESTART, *)   TOUT(1), TOUT(2)
  316                                                        
  317 ! 4.2 Output points NOPTS
  318         ALLOCATE(POINTLIST(NOPTS+1))
  319         POINTLIST(:)=''
  320         CALL STRSPLIT(NML_POINT%LIST,POINTLIST)
  321 !
  322         ALLOCATE ( FLREQ(NOPTS) )
  323         ALLOCATE ( INDREQTMP(NOPTS) )
  324         FLREQ = .FALSE.
  325         NREQ   = 0
  326         ALLOCATE (NCFILE(NOPTS))
  327         ALLOCATE (NCID(NOPTS))
  328         NBSTATION = 1
  329         ! full list of point indexes
  330         IF (TRIM(POINTLIST(1)).EQ.'all') THEN
 
 
                                                         ww3_ounp.F90  page   7
 
 
  331           FLREQ = .TRUE.
  332           NREQ = NOPTS
  333           INDREQTMP=(/(J,J=1,NREQ)/)
  334         ! user defined list of point indexes
  335         ELSE
  336           IP=0
  337           DO WHILE (LEN_TRIM(POINTLIST(IP+1)).NE.0)
  338             IP=IP+1
  339             READ(POINTLIST(IP),*) IPOINT
  340             ! existing index in out_pnt.ww3
  341             IF ((IPOINT .LE. NOPTS) .AND. (NREQ .LT. NOPTS)) THEN
  342               IF ( .NOT. FLREQ(IPOINT) ) THEN
  343                 NREQ = NREQ + 1
  344                 INDREQTMP(NREQ)=IPOINT
  345               END IF
  346               FLREQ(IPOINT) = .TRUE.
  347             END IF
  348           END DO
  349         END IF
  350               
  351 ! 4.3 Output type
  352         FLWW3 = 0
  353         FILEPREFIX = NML_FILE%PREFIX
  354         NCTYPE = NML_FILE%NETCDF
  355         S3 = NML_POINT%TIMESPLIT
  356         TOGETHER = NML_POINT%SAMEFILE
  357         MFL = NML_POINT%BUFFER
  358         ITYPE = NML_POINT%TYPE
  359         ORDER = NML_POINT%DIMORDER
  360 !
  361         IF (ITYPE .EQ. 1) THEN
  362           OTYPE = NML_SPECTRA%OUTPUT
  363           SCALE1 = NML_SPECTRA%SCALE_FAC
  364           SCALE2 = NML_SPECTRA%OUTPUT_FAC
  365         ELSE IF (ITYPE .EQ. 2) THEN
  366           OTYPE = NML_PARAM%OUTPUT
  367         ELSE IF (ITYPE .EQ. 3) THEN
  368           OTYPE = NML_SOURCE%OUTPUT
  369           SCALE1 = NML_SOURCE%SCALE_FAC
  370           SCALE2 = NML_SOURCE%OUTPUT_FAC
  371           FLSRCE(1) = NML_SOURCE%SPECTRUM
  372           FLSRCE(2) = NML_SOURCE%INPUT
  373           FLSRCE(3) = NML_SOURCE%INTERACTIONS
  374           FLSRCE(4) = NML_SOURCE%DISSIPATION
  375           FLSRCE(5) = NML_SOURCE%BOTTOM
  376           FLSRCE(6) = NML_SOURCE%ICE
  377           FLSRCE(7) = NML_SOURCE%TOTAL
  378           ISCALE = NML_SOURCE%TABLE_FAC
  379         END IF
  380               
  381               
  382       END IF ! FLGNML
  383                      
  384 !
  385 ! process old ww3_ounp.inp format
 
 
                                                         ww3_ounp.F90  page   8
 
 
  386 !
  387       IF (.NOT. FLGNML) THEN
  388         OPEN (NDSI,FILE=TRIM(FNMPRE)//'ww3_ounp.inp',STATUS='OLD',ERR=800>
  389         REWIND (NDSI)
  390                      
  391         READ (NDSI,'(A)',END=801,ERR=802,IOSTAT=IERR) COMSTR
  392         IF (COMSTR.EQ.' ') COMSTR = '$'
  393         IF ( IAPROC .EQ. NAPOUT ) WRITE (NDSO,901) COMSTR
  394         CALL NEXTLN ( COMSTR , NDSI , NDSE )
  395                                             
  396 ! 4.1 Time setup IDTIME, DTREQ, NOUT
  397         READ (NDSI,*,END=801,ERR=802) TOUT, DTREQ, NOUT
  398                                                        
  399 ! 4.2 Output points NOPTS
  400         ALLOCATE ( FLREQ(NOPTS) )
  401         ALLOCATE ( INDREQTMP(NOPTS) )
  402         FLREQ = .FALSE.
  403         NREQ   = 0
  404         ALLOCATE (NCFILE(NOPTS))
  405         ALLOCATE (NCID(NOPTS))
  406         NBSTATION = 1
  407 !
  408         DO I=1, NOPTS
  409           ! reads point index
  410           CALL NEXTLN ( COMSTR , NDSI , NDSE )
  411           READ (NDSI,*,END=801,ERR=802) IPOINT
  412           ! last index
  413           IF (IPOINT .LT. 0) THEN
  414             IF (I.EQ.1) THEN
  415               FLREQ = .TRUE.
  416               NREQ = NOPTS
  417               INDREQTMP=(/(J,J=1,NREQ)/)
  418             END IF
  419             EXIT
  420           END IF
  421           ! existing index in out_pnt.ww3
  422           IF ( (IPOINT .GT. 0) .AND. (IPOINT .LE. NOPTS) ) THEN
  423             IF ( .NOT. FLREQ(IPOINT) ) THEN
  424               NREQ = NREQ + 1
  425               INDREQTMP(NREQ)=IPOINT
  426             END IF
  427             FLREQ(IPOINT) = .TRUE.
  428           END IF
  429           ! read the 'end of list' if nopts reached before it
  430           IF ( (IPOINT .GT. 0) .AND. (NREQ .EQ. NOPTS) ) THEN
  431             CALL NEXTLN ( COMSTR , NDSI , NDSE )
  432             READ (NDSI,*,END=801,ERR=802) IPOINT
  433           END IF
  434         END DO
  435         ! check if last point index is -1
  436         IF (IPOINT .NE. -1) THEN
  437           WRITE (NDSE,1007)
  438           CALL EXTCDE ( 47 )
  439         END IF
  440               
 
 
                                                         ww3_ounp.F90  page   9
 
 
  441 ! 4.3 Output type
  442         FILEPREFIX= 'ww3.'
  443         CALL NEXTLN ( COMSTR , NDSI , NDSE )
  444         READ (NDSI,*,END=801,ERR=802) FILEPREFIX
  445         CALL NEXTLN ( COMSTR , NDSI , NDSE )
  446         READ (NDSI,*,END=801,ERR=802) S3
  447         CALL NEXTLN ( COMSTR , NDSI , NDSE )
  448         READ (NDSI,*,END=801,ERR=802) NCTYPE
  449         CALL NEXTLN ( COMSTR , NDSI , NDSE )
  450         READ (NDSI,*,END=801,ERR=802) TOGETHER, MFL
  451         CALL NEXTLN ( COMSTR , NDSI , NDSE )
  452         READ (NDSI,*,END=801,ERR=802) ITYPE
  453         CALL NEXTLN ( COMSTR , NDSI , NDSE )
  454         READ (NDSI,*,END=801,ERR=802) FLWW3
  455         CALL NEXTLN ( COMSTR , NDSI , NDSE )
  456         READ (NDSI,*,END=801,ERR=802) ORDER
  457         CALL NEXTLN ( COMSTR , NDSI , NDSE )
  458 !
  459         IF (ITYPE .EQ. 1) READ (NDSI,*,END=801,ERR=802) OTYPE, SCALE1, SC>
  460         IF (ITYPE .EQ. 2) READ (NDSI,*,END=801,ERR=802) OTYPE
  461         IF (ITYPE .EQ. 3) READ (NDSI,*,END=801,ERR=802) OTYPE, SCALE1, SC>
  462                                                                           
  463         CLOSE(NDSI,ERR=800,IOSTAT=IERR)
  464                                        
  465       END IF ! .NOT. FLGNML
  466                            
  467 !
  468  
  469 ! 4.1 Time setup IDTIME, DTREQ, NOUT
  470       DTREQ  = MAX ( 0. , DTREQ )
  471       IF ( DTREQ.EQ.0 ) NOUT = 1
  472       NOUT   = MAX ( 1 , NOUT )
  473       NOUTL = NOUT
  474       TOUTL = TOUT
  475       CALL STME21 ( TOUT , IDTIME )
  476       IF ( IAPROC .EQ. NAPOUT ) WRITE (NDSO,940) IDTIME
  477       TDUM   = 0
  478       CALL TICK21 ( TDUM , DTREQ )
  479       CALL STME21 ( TDUM , IDTIME )
  480       IF ( DTREQ .GE. 86400. ) THEN
  481         WRITE (IDDDAY,'(I10,1X)') INT(DTREQ/86400.)
  482       ELSE
  483         IDDDAY = '           '
  484       END IF
  485       IDTIME(1:11) = IDDDAY
  486       IDTIME(21:23) = '   '
  487       IF ( IAPROC .EQ. NAPOUT ) WRITE (NDSO,941) IDTIME, NOUT
  488                                                              
  489                                                              
  490 ! 4.1.2 Selects first time FILETIME between out_pnt.ww3 and ww3_ounp.nml
  491       IF (TOUT(1).GT.TIME(1) .OR. (TOUT(1).EQ.TIME(1) .AND. TOUT(2).GT.TI>
  492         WRITE(DATE,'(I8.8,I6.6)') TOUT(1), TOUT(2)
  493       ELSE
  494         WRITE(DATE,'(I8.8,I6.6)') TIME(1), TIME(2)
  495       END IF
 
 
                                                         ww3_ounp.F90  page  10
 
 
  496       WRITE(FILETIME,'(8A)') DATE(1:4), DATE(5:6), DATE(7:8), 'T', DATE(9>
  497                                                                           
  498                                                                           
  499 ! 4.1.3 Loops on TIME from out_pnt file to reach the first time PASTDATE
  500       DTEST  = DSEC21 ( TIME , TOUT )
  501       DO WHILE (DTEST.NE.0)
  502         DTEST  = DSEC21 ( TIME , TOUT )
  503         IF ( DTEST .GT. 0. ) THEN
  504           CALL W3IOPO ( 'READ', NDSOP, IOTEST )
  505           IF ( IOTEST .EQ. -1 ) THEN
  506             IF ( IAPROC .EQ. NAPOUT ) WRITE (NDSO,949)
  507             GOTO 888
  508           END IF
  509           CYCLE
  510         END IF
  511         IF ( DTEST .LT. 0. ) THEN
  512           CALL TICK21 ( TOUT , DTREQ )
  513           CYCLE
  514         END IF
  515       END DO
  516       WRITE(PASTDATE,'(I8.8,I6.6)') TIME(1), TIME(2)
  517                                                     
  518                                                     
  519 ! 4.2 Output points NOPTS
  520       ALLOCATE ( INDREQ(NREQ) )
  521       INDREQ(:)=INDREQTMP(1:NREQ)
  522       DEALLOCATE(INDREQTMP)
  523                            
  524                            
  525 ! 4.3 Output type
  526 !
  527       ! S3 defines the number of characters in the date for the filename
  528       ! S3=4-> YYYY, S3=6 -> YYYYMM, S3=10 -> YYYYMMDDHH
  529 !
  530       ! Setups min and max date format
  531       IF (S3.LT.4) S3=4
  532       IF (S3.GT.10) S3=10
  533 !
  534       ! Defines the format of FILETIME as ISO8601 convention
  535       S5=S3-8
  536       ! if S3=>YYYYMMDDHH then filetime='YYYYMMDDTHHMMSSZ'
  537       IF (S3.EQ.10) THEN
  538         WRITE(FORMAT1,'(A,I1,A,I1,A)') '(I8.8,A1,I',S5,'.',S5,',A1)'
  539         WRITE (FILETIME,FORMAT1) TIME(1), 'T', &
  540                FLOOR(REAL(TIME(2))/NINT(10.**(6-S5))), 'Z'
  541       ! if S3=>YYYYMMDD then filetime='YYYYMMDD'
  542       ELSE IF (S3.EQ.8) THEN
  543         WRITE(FORMAT1,'(A,I1,A,I1,A)') '(I',S3,'.',S3,')'
  544         WRITE (FILETIME,FORMAT1) TIME(1)
  545       ! if S3=>YYYYMM then filetime='YYYYMM'
  546       ! or S3=>YYYY then filetime='YYYY'
  547       ELSE
  548         WRITE(FORMAT1,'(A,I1,A,I1,A)') '(I',S3,'.',S3,')'
  549         WRITE (FILETIME,FORMAT1) FLOOR(REAL(TIME(1))/NINT(10.**(8-S3)))
  550       END IF
 
 
                                                         ww3_ounp.F90  page  11
 
 
  551 !
  552       ! order time,station
  553       IF (ORDER) THEN
  554         ONE=1
  555         TWO=2
  556       ! order station,time
  557       ELSE
  558         ONE=2
  559         TWO=1
  560       END IF
  561 !
  562       IF ((NCTYPE.EQ.3) .AND. (.NOT.ORDER)) GOTO 803
  563       IF ((NCTYPE.EQ.4) .AND. INDEX(NF90_INQ_LIBVERS(),'"3.').NE.0) GOTO >
  564                                                                           
  565                                                                           
  566 ! 4.4 Converts direction unit in degree
  567       ALLOCATE(THD(NTH))
  568       DTHD=360./NTH
  569       RTH0=TH(1)/DTH
  570       DO ITH=1, NTH
  571         THD(ITH)=DTHD*(RTH0+REAL(ITH-1))
  572       END DO
  573 !
  574 !--- - - - - - - - - - - - - - - - - - - - - - - - - - - - - - - - - -
  575 ! 5.  Now creates files
  576 !     If too many (memory problem) then makes several reads
  577 !
  578  
  579  
  580 ! 5.1 Defines number of files/stations per file NFL
  581       IF (TOGETHER) THEN
  582         NFL=1
  583       ELSE
  584         NFL=1+NOPTS/MFL
  585       END IF
  586             
  587             
  588 ! 5.2 Creates filename listing
  589       WRITE(EXT,'(A)') ''
  590       IF ((ITYPE .EQ. 1) .AND. (OTYPE.EQ.2)) WRITE(EXT,'(A)') '_tab.nc'
  591       IF ((ITYPE .EQ. 1) .AND. (OTYPE.EQ.3)) WRITE(EXT,'(A)') '_spec.nc'
  592       IF ((ITYPE .EQ. 1) .AND. (OTYPE.EQ.4)) WRITE(EXT,'(A)') '_tab.nc'
  593       IF  (ITYPE .EQ. 2)                     WRITE(EXT,'(A)') '_tab.nc'
  594       IF ((ITYPE .EQ. 3) .AND. (OTYPE.EQ.2)) WRITE(EXT,'(A)') '_tab.nc'
  595       IF ((ITYPE .EQ. 3) .AND. (OTYPE.EQ.3)) WRITE(EXT,'(A)') '_tab.nc'
  596       IF ((ITYPE .EQ. 3) .AND. (OTYPE.EQ.4)) WRITE(EXT,'(A)') '_src.nc'
  597       ! checks if extension exists
  598       IF (LEN_TRIM(EXT).EQ.0) THEN
  599         WRITE (NDSE,1006)
  600         CALL EXTCDE ( 46 )
  601       END IF
  602             
  603 ! 5.3 Redefines netCDF type
  604       IF((NCTYPE.EQ.4).AND.(.NOT.TOGETHER).AND.(NFL.GT.300).AND.(NREQ.GT.>
  605         WRITE(NDSO,'(A)') ' WARNING : Files will be generated in netCDF3 >
 
 
                                                         ww3_ounp.F90  page  12
 
 
  606         WRITE(NDSO,'(A)') ' WARNING : this is due to NF90_sync memory pro>
  607         WRITE(NDSO,'(A)') ' WARNING : to convert in netCDF4, use ncks -h >
  608         WRITE(NDSO,'(A)') ' WARNING : or use option "Points in same file">
  609         WRITE(NDSO,'(A)') ' WARNING : or limit the output points list to >
  610         NCTYPE=3
  611       END IF
  612             
  613             
  614             
  615 ! 5.4 Defines periodic flushing of buffer (only available for netCDF3)
  616       NCFLUSH=FLOOR(15E7/(FLOAT(NK)*FLOAT(NTH)*FLOAT(NREQ)/NFL))
  617       IF (NCTYPE.EQ.3.AND.NREQ.GT.10.AND.(.NOT.TOGETHER)) WRITE(NDSO,5940>
  618                                                                           
  619                                                                           
  620 ! 5.5 Removes the duplicata if "ONE file per station" mode
  621       IF (.NOT.TOGETHER) THEN
  622         ! defines a file name per station (NOT TOGETHER)
  623         DO I=1,NOPTS
  624           IF (FLREQ(I)) THEN
  625             J = LEN_TRIM(FNMPRE)
  626             WRITE (NCNAME, '(5A)') TRIM(FILEPREFIX), TRIM(PTNME(I)),'_', >
  627             WRITE(NCFILE(I),'(2A)') TRIM(FNMPRE(:J)), TRIM(NCNAME)  ! fil>
  628             IF( SUM(index(NCFILE(:),NCFILE(I))).GT.1 ) THEN
  629               FLREQ(I)=.FALSE.
  630               WRITE(NDSO,5950) TRIM(PTNME(I))
  631               CYCLE
  632             END IF
  633           END IF  ! FLREQ(I)
  634         END DO  ! I=1,NOPTS
  635       END IF  ! .NOT.TOGETHER
  636                              
  637                              
  638 ! 5.6 Loops on bunch of stations NFL
  639       DO IFL=IAPROC,NFL,NAPROC
  640 !
  641         ! new file, so the time counter is initialized
  642     560 CONTINUE
  643         IOUT=0
  644               
  645               
  646 ! 5.6.1 Redefines the filetime when it's a new date defined by the date d>
  647         ! if S3=>YYYYMMDDHH then filetime='YYYYMMDDTHHMMSSZ'
  648         IF (S3.EQ.10) THEN
  649           WRITE(FORMAT1,'(A,I1,A,I1,A)') '(I8.8,A1,I',S5,'.',S5,',A1)'
  650           WRITE (FILETIME,FORMAT1) TIME(1), 'T', &
  651                  NINT(REAL(TIME(2))/NINT(10.**(6-S5))), 'Z'
  652         ! if S3=>YYYYMMDD then filetime='YYYYMMDD'
  653         ELSE IF (S3.EQ.8) THEN
  654           WRITE(FORMAT1,'(A,I1,A,I1,A)') '(I',S3,'.',S3,')'
  655           WRITE (FILETIME,FORMAT1) TIME(1)
  656         ! if S3=>YYYYMM then filetime='YYYYMM'
  657         ! or S3=>YYYY then filetime='YYYY'
  658         ELSE
  659           WRITE(FORMAT1,'(A,I1,A,I1,A)') '(I',S3,'.',S3,')'
  660           WRITE (FILETIME,FORMAT1) NINT(REAL(TIME(1))/NINT(10.**(8-S3)))
 
 
                                                         ww3_ounp.F90  page  13
 
 
  661         END IF
  662               
  663               
  664 ! 5.6.2 Defines the file names
  665         ! defines unique file name (TOGETHER)
  666         IF (TOGETHER) THEN
  667           WRITE (NCNAME, '(3A)') TRIM(FILEPREFIX), TRIM(FILETIME), TRIM(E>
  668           !IF ( IAPROC .EQ. NAPOUT ) WRITE (NDSO,1947) TRIM(NCNAME)
  669           J = LEN_TRIM(FNMPRE)
  670           WRITE(NCFILE(1),'(2A)') TRIM(FNMPRE(:J)), TRIM(NCNAME)  ! filen>
  671         ELSE
  672           ! defines a file name per station (NOT TOGETHER)
  673           DO I=1,NOPTS
  674             IF (FLREQ(I)) THEN
  675               WRITE (NCNAME, '(5A)') TRIM(FILEPREFIX), TRIM(PTNME(I)),'_'>
  676               !IF ( IAPROC .EQ. NAPOUT ) WRITE (NDSO,1947) TRIM(NCNAME)
  677               J = LEN_TRIM(FNMPRE)
  678               WRITE(NCFILE(I),'(2A)') TRIM(FNMPRE(:J)), TRIM(NCNAME)  ! f>
  679             END IF  ! FLREQ(I)
  680           END DO  ! I=1,NOPTS
  681         END IF  ! TOGETHER
  682                           
  683                           
  684 ! 5.6.3 Defines number of stations and files to CREATE
  685         ! together
  686         IF (TOGETHER) THEN
  687           NBFILEOUT = 1
  688           NBSTATION = NREQ
  689           NREQL=NBFILEOUT
  690         ! not together
  691         ELSE
  692           NBFILEOUT=MIN(MFL,NOPTS-(IFL-1)*MFL)
  693           NBSTATION = 1
  694           NREQL=0
  695           DO I=1+(IFL-1)*MFL,(IFL-1)*MFL+NBFILEOUT
  696             IF ( FLREQ(I) ) THEN
  697               NREQL = NREQL + 1
  698             END IF
  699           END DO
  700         END IF
  701         ! cycle if no file to CREATE
  702         IF (NREQL.EQ.0) CYCLE
  703                              
  704                              
  705 ! 5.6.4 Creates netcdf file
  706                            
  707 ! ... ITYPE = 1
  708         IF (ITYPE .EQ. 1) THEN
  709           IF ( IAPROC .EQ. NAPOUT ) WRITE (NDSO,942) ITYPE, '1-D and/or 2>
  710                                                                           
  711 ! ... OTYPE = 1
  712           IF (OTYPE .EQ. 1) THEN
  713             IF ( IAPROC .EQ. NAPOUT ) WRITE (NDSO,943) 'print plots'
  714             IF ( SCALE1 .LT. 0.  ) THEN
  715               IF ( IAPROC .EQ. NAPOUT ) WRITE (NDSO,1940) '1-D'
 
 
                                                         ww3_ounp.F90  page  14
 
 
  716             ELSE IF ( SCALE1 .EQ. 0.  ) THEN
  717               IF ( IAPROC .EQ. NAPOUT ) WRITE (NDSO,1941) '1-D'
  718             ELSE
  719               IF ( IAPROC .EQ. NAPOUT ) WRITE (NDSO,1942) '1-D', SCALE1
  720             END IF
  721             IF ( SCALE2 .LT. 0.  ) THEN
  722               IF ( IAPROC .EQ. NAPOUT ) WRITE (NDSO,1940) '2-D'
  723             ELSE IF ( SCALE2 .EQ. 0.  ) THEN
  724               IF ( IAPROC .EQ. NAPOUT ) WRITE (NDSO,1941) '2-D'
  725             ELSE
  726               IF ( IAPROC .EQ. NAPOUT ) WRITE (NDSO,1942) '2-D', SCALE2
  727             END IF
  728                   
  729 ! ... OTYPE = 2
  730           ELSE IF ( OTYPE .EQ. 2 ) THEN
  731             IF ( IAPROC .EQ. NAPOUT ) WRITE (NDSO,943) 'Table of 1-D spec>
  732             DO I=1+(IFL-1)*MFL,(IFL-1)*MFL+NBFILEOUT
  733               IF (FLREQ(I) .OR. TOGETHER) THEN
  734              ! Create the netCDF file
  735                 DIMLN(1)=NF90_UNLIMITED    ! time
  736                 DIMLN(2)=NBSTATION         ! station
  737                 DIMLN(3)=40                ! string station name length
  738                 DIMLN(4)=NK                ! FREQ
  739                 CALL W3CRNC(ITYPE,OTYPE,NCTYPE,NCFILE(I),NCID(I),DIMID,DI>
  740               END IF
  741             END DO
  742                   
  743 ! ... OTYPE = 3
  744           ELSE IF ( OTYPE .EQ. 3 ) THEN
  745             IF ( IAPROC .EQ. NAPOUT ) WRITE (NDSO,943) 'Transfer file'
  746             DO I=1+(IFL-1)*MFL,(IFL-1)*MFL+NBFILEOUT
  747               IF (FLREQ(I) .OR. TOGETHER) THEN
  748               ! Create the netCDF file
  749                 DIMLN(1)=NF90_UNLIMITED  !time
  750                 DIMLN(2)=NBSTATION ! station
  751                 DIMLN(3)=40 ! string station name length
  752                 DIMLN(4)=NK ! FREQ
  753                 DIMLN(5)=NTH ! DIR
  754                 CALL W3CRNC(ITYPE,OTYPE,NCTYPE,NCFILE(I),NCID(I),DIMID,DI>
  755               END IF
  756             END DO
  757                   
  758 ! ... OTYPE = 4
  759           ELSE IF ( OTYPE .EQ. 4 ) THEN
  760             IF ( IAPROC .EQ. NAPOUT ) WRITE (NDSO,943) 'Partitioning of s>
  761             DO I=1+(IFL-1)*MFL,(IFL-1)*MFL+NBFILEOUT
  762               IF (FLREQ(I) .OR. TOGETHER) THEN
  763                 ! Create the netCDF file
  764                 DIMLN(1)=NF90_UNLIMITED  !time
  765                 DIMLN(2)=NBSTATION ! station
  766                 DIMLN(3)=40    ! string station name length
  767                 DIMLN(4)=DIMXP ! npart
  768                 CALL W3CRNC(ITYPE,OTYPE,NCTYPE,NCFILE(I),NCID(I),DIMID,DI>
  769               END IF
  770             END DO
 
 
                                                         ww3_ounp.F90  page  15
 
 
  771           ELSE
  772             WRITE (NDSE,1011) OTYPE
  773             CALL EXTCDE ( 10 )
  774           END IF
  775                 
  776                 
  777                 
  778 ! ... ITYPE = 2
  779         ELSE IF (ITYPE .EQ. 2) THEN
  780           IF ( IAPROC .EQ. NAPOUT ) WRITE (NDSO,942) ITYPE, 'Table of mea>
  781           DO I=1+(IFL-1)*MFL,(IFL-1)*MFL+NBFILEOUT
  782             IF (FLREQ(I) .OR. TOGETHER) THEN
  783               ! Create the netCDF file
  784               DIMLN(1)=NF90_UNLIMITED  !time
  785               DIMLN(2)=NBSTATION ! station
  786               DIMLN(3)=40    ! string station name length
  787               CALL W3CRNC(ITYPE,OTYPE,NCTYPE,NCFILE(I),NCID(I),DIMID,DIML>
  788             END IF
  789           END DO
  790                 
  791 ! ... OTYPE = 1
  792           IF ( OTYPE .EQ. 1 ) THEN
  793             IF ( IAPROC .EQ. NAPOUT ) WRITE (NDSO,2940) 'depth, current a>
  794                                                                           
  795 ! ... OTYPE = 2
  796           ELSE IF ( OTYPE .EQ. 2 ) THEN
  797             IF ( IAPROC .EQ. NAPOUT ) WRITE (NDSO,2940) 'Mean wave parame>
  798                                                                           
  799 ! ... OTYPE = 3
  800           ELSE IF ( OTYPE .EQ. 3 ) THEN
  801             IF ( IAPROC .EQ. NAPOUT ) WRITE (NDSO,2940) 'Nondimensional p>
  802                                                                           
  803 ! ... OTYPE = 4
  804           ELSE IF ( OTYPE .EQ. 4 ) THEN
  805             IF ( IAPROC .EQ. NAPOUT ) WRITE (NDSO,2940) 'Nondimensional p>
  806                                                                           
  807 ! ... OTYPE = 5
  808           ELSE IF ( OTYPE .EQ. 5 ) THEN
  809             IF ( IAPROC .EQ. NAPOUT ) WRITE (NDSO,2940) 'Validation param>
  810                                                                           
  811 ! ... OTYPE = 6
  812           ELSE IF ( OTYPE .EQ. 6 ) THEN
  813             IF ( IAPROC .EQ. NAPOUT ) WRITE (NDSO,2940) 'WMO standard mea>
  814 ! ... OTYPE = ILLEGAL
  815           ELSE
  816             WRITE (NDSE,1011) OTYPE
  817             CALL EXTCDE ( 30 )
  818           END IF
  819 !
  820           DO I=1,6
  821             IF ( FLSRCE(I) .AND. IAPROC .EQ. NAPOUT ) WRITE (NDSO,3940) I>
  822           END DO
  823           IF ( IAPROC .EQ. NAPOUT ) WRITE (NDSO,*) ' '
  824                                                       
  825                                                       
 
 
                                                         ww3_ounp.F90  page  16
 
 
  826 ! ... ITYPE = 3
  827         ELSE IF (ITYPE .EQ. 3) THEN
  828           IF ( IAPROC .EQ. NAPOUT ) WRITE (NDSO,942) ITYPE, 'Source terms'
  829           ISCALE = MAX ( 0 , MIN ( 5 , ISCALE ) )
  830                                                  
  831 ! ... OTYPE = 1
  832           IF ( OTYPE .EQ. 1 ) THEN
  833             IF ( IAPROC .EQ. NAPOUT ) WRITE (NDSO,943) 'Print plots'
  834             IF ( SCALE1 .LT. 0.  ) THEN
  835               IF ( IAPROC .EQ. NAPOUT ) WRITE (NDSO,1940) '1-D'
  836             ELSE IF ( SCALE1 .EQ. 0.  ) THEN
  837               IF ( IAPROC .EQ. NAPOUT ) WRITE (NDSO,1941) '1-D'
  838             ELSE
  839               IF ( IAPROC .EQ. NAPOUT ) WRITE (NDSO,1942) '1-D', SCALE1
  840             END IF
  841             IF ( SCALE2 .LT. 0.  ) THEN
  842               IF ( IAPROC .EQ. NAPOUT ) WRITE (NDSO,1940) '2-D'
  843             ELSE IF ( SCALE2 .EQ. 0.  ) THEN
  844               IF ( IAPROC .EQ. NAPOUT ) WRITE (NDSO,1941) '2-D'
  845             ELSE
  846               IF ( IAPROC .EQ. NAPOUT ) WRITE (NDSO,1942) '2-D', SCALE2
  847             END IF
  848                   
  849 ! ... OTYPE = 2
  850 ! or  OTYPE = 3
  851           ELSE IF (( OTYPE .EQ. 2 ) .OR. ( OTYPE .EQ. 3 )) THEN
  852             IF ( ISCALE .LE. 2) THEN
  853               IF ( IAPROC .EQ. NAPOUT ) WRITE (NDSO,943) 'Tables as a fun>
  854             ELSE
  855               IF ( IAPROC .EQ. NAPOUT ) WRITE (NDSO,943) 'Tables as a fun>
  856             END IF
  857             IF ( MOD(ISCALE,3) .EQ. 1 ) THEN
  858               IF ( IAPROC .EQ. NAPOUT ) WRITE (NDSO,944) '(nondimensional>
  859             ELSE IF ( MOD(ISCALE,3) .EQ. 2) THEN
  860               IF ( IAPROC .EQ. NAPOUT ) WRITE (NDSO,944) '(nondimensional>
  861             END IF
  862                   
  863             DO I=1+(IFL-1)*MFL,(IFL-1)*MFL+NBFILEOUT
  864               IF (FLREQ(I) .OR. TOGETHER) THEN
  865                 ! Create the netCDF file
  866                 DIMLN(1)=NF90_UNLIMITED  !time
  867                 DIMLN(2)=NBSTATION ! station
  868                 DIMLN(3)=40    ! string station name length
  869                 DIMLN(4)=NK ! freq
  870                 CALL W3CRNC(ITYPE,OTYPE,NCTYPE,NCFILE(I),NCID(I),DIMID,DI>
  871               END IF
  872             END DO
  873                   
  874 ! ... OTYPE = 4
  875           ELSE IF ( OTYPE .EQ. 4 ) THEN
  876             IF ( IAPROC .EQ. NAPOUT ) WRITE (NDSO,943) 'Transfer file'
  877             DO I=1+(IFL-1)*MFL,(IFL-1)*MFL+NBFILEOUT
  878               IF (FLREQ(I) .OR. TOGETHER) THEN
  879                 ! Create the netCDF file
  880                 DIMLN(1)=NF90_UNLIMITED  !time
 
 
                                                         ww3_ounp.F90  page  17
 
 
  881                 DIMLN(2)=NBSTATION ! station
  882                 DIMLN(3)=40    ! string station name length
  883                 DIMLN(4)=NK ! freq
  884                 DIMLN(5)=NTH ! dir
  885                 CALL W3CRNC(ITYPE,OTYPE,NCTYPE,NCFILE(I),NCID(I),DIMID,DI>
  886               END IF
  887             END DO
  888                   
  889 ! ... OTYPE = ILLEGAL
  890           ELSE
  891             WRITE (NDSE,1011) OTYPE
  892             CALL EXTCDE ( 20 )
  893           END IF
  894                 
  895                 
  896 ! ... ITYPE = ILLEGAL
  897         ELSE
  898           WRITE (NDSE,1010) ITYPE
  899           CALL EXTCDE ( 1 )
  900         END IF
  901               
  902               
  903 ! 5.6.5 Output of output points
  904         IF ( IAPROC .EQ. NAPOUT ) WRITE (NDSO,950) NREQ
  905         ! together
  906         IF (TOGETHER) THEN
  907           DO I=1+(IFL-1)*MFL,(IFL-1)*MFL+NBSTATION
  908             IF (FLREQ(I)) THEN
  909               IF ( FLAGLL ) THEN
  910                 IF ( IAPROC .EQ. NAPOUT ) WRITE (NDSO,951) PTNME(I), M2KM>
  911                                            M2KM*PTLOC(2,I)
  912               ELSE
  913                 IF ( IAPROC .EQ. NAPOUT ) WRITE (NDSO,953) PTNME(I), M2KM>
  914                                            M2KM*PTLOC(2,I)
  915               END IF
  916             END IF
  917           END DO
  918         ! not together
  919         ELSE
  920           DO I=1+(IFL-1)*MFL,(IFL-1)*MFL+NBFILEOUT
  921             IF (FLREQ(I)) THEN
  922               IF ( FLAGLL ) THEN
  923                 IF ( IAPROC .EQ. NAPOUT ) WRITE (NDSO,951) PTNME(I), M2KM>
  924                                            M2KM*PTLOC(2,I)
  925               ELSE
  926                 IF ( IAPROC .EQ. NAPOUT ) WRITE (NDSO,953) PTNME(I), M2KM>
  927                                            M2KM*PTLOC(2,I)
  928               END IF
  929             END IF
  930           END DO
  931         END IF
  932 !
  933 !--- - - - - - - - - - - - - - - - - - - - - - - - - - - - - - - - - -
  934 ! 6.  Time management.
  935 !
 
 
                                                         ww3_ounp.F90  page  18
 
 
  936         CALL T2D(TIME,STARTDATE,IERR)
  937         WRITE(STRSTARTDATE,'(I4.4,A,4(I2.2,A),I2.2)') STARTDATE(1),'-',ST>
  938               '-',STARTDATE(3),' ',STARTDATE(5),':',STARTDATE(6),':',STAR>
  939                                                                           
  940         ! loops on TIME from out_pnt.ww3 till not reach TOUT from inp file
  941         DO
  942           DTEST = DSEC21 ( TIME , TOUT )
  943           IF ( DTEST .GT. 0. ) THEN
  944             ! reads TIME from out_pnt.ww3
  945             CALL W3IOPO ( 'READ', NDSOP, IOTEST )
  946             IF ( IOTEST .EQ. -1 ) THEN
  947               IF ( IAPROC .EQ. NAPOUT ) WRITE (NDSO,949)
  948               GOTO 700
  949             END IF
  950             CYCLE
  951           END IF
  952           IF ( DTEST .LT. 0. ) THEN
  953             CALL TICK21 ( TOUT , DTREQ )
  954             CYCLE
  955           END IF
  956           ! increment the time counter IOUT
  957           IOUT = IOUT + 1
  958           CALL STME21 ( TOUT , IDTIME )
  959           WRITE(DATE,'(I8.8,I6.6)') TOUT(1), TOUT(2)
  960                                                     
  961                                                     
  962 ! 6.1 Creates a new file if it is a new date defined by the date division>
  963           IF ( (IOUT.GT.1) .AND. (INDEX(PASTDATE(1:S3),DATE(1:S3)).EQ.0) >
  964             WRITE(NDSO,954) TRIM(DATE(1:S3))
  965             ! decrements timesteps already processed
  966             NOUT=NOUT-(IOUT-1)
  967             GOTO 700
  968           END IF
  969                 
  970                 
  971 ! 6.2 Writes out a progress message
  972           IF (NREQ.GT.10.OR.NBFILEOUT.GT.10) WRITE(NDSO,955) TIME,    &
  973                                              NBFILEOUT, IOUT, NOUT, IFL
  974           J=0
  975              
  976 ! 6.3 Calls subroutine w3exnc for each file
  977           DO I=1+(IFL-1)*MFL,(IFL-1)*MFL+NBFILEOUT
  978             IF (FLREQ(I) .OR. TOGETHER) THEN
  979               ! together
  980               IF ( TOGETHER ) THEN
  981                 CALL W3EXNC(I,NCID(I),NREQ,INDREQ,ORDER)
  982               ! not together
  983               ELSE
  984                 J=J+1
  985                 CALL W3EXNC(I,NCID(I),1,(/ I /),ORDER)
  986                 ! flush buffer (only available in netcdf3)
  987                 IF (MOD(IOUT,NCFLUSH).EQ.0) THEN
  988                   IRET=NF90_SYNC(NCID(I))
  989                 END IF
  990               END IF ! TOGETHER
 
 
                                                         ww3_ounp.F90  page  19
 
 
  991             END IF ! (FLREQ(I) .OR. TOGETHER)
  992           END DO ! I=1+ ...
  993 !
  994           WRITE(PASTDATE,'(I8.8,I6.6)') TOUT(1), TOUT(2)
  995           CALL TICK21 ( TOUT , DTREQ )
  996           IF ( IOUT .GE. NOUT ) GOTO 700
  997 !
  998         END DO
  999 !
 1000         GOTO 888
 1001                 
 1002                 
 1003 !
 1004 !--- - - - - - - - - - - - - - - - - - - - - - - - - - - - - - - - - -
 1005 ! 7. Finalize file
 1006 !
 1007     700 CONTINUE
 1008 !
 1009         CALL T2D(TIME,STOPDATE,IERR)
 1010         WRITE(STRSTOPDATE,'(I4.4,A,4(I2.2,A),I2.2)') STOPDATE(1),'-',STOP>
 1011               '-',STOPDATE(3),' ',STOPDATE(5),':',STOPDATE(6),':',STOPDAT>
 1012                                                                           
 1013                                                                           
 1014 ! 7.1 Writes the global attributes to netCDF file
 1015         DO I=1+(IFL-1)*MFL,(IFL-1)*MFL+NBFILEOUT
 1016           IF ( FLREQ(I) .OR. TOGETHER ) THEN
 1017             IRET=NF90_REDEF(NCID(I))
 1018             CALL CHECK_ERR(IRET,0)
 1019             IF (FLWW3.EQ.0)                                      &
 1020               OPEN(unit=994,file='NC_globatt.inp',status='old',iostat=ICO>
 1021             REWIND(994)
 1022             IF (ICODE.EQ.0) THEN
 1023               DO WHILE (ICODE.EQ.0)
 1024                 READ(994,'(a)',iostat=ICODE) ATTNAME
 1025                 READ(994,'(a)',iostat=ICODE) ATTVAL
 1026                 IF (ICODE.EQ.0) THEN
 1027                   STRL=LEN_TRIM(ATTNAME)
 1028                   STRL2=LEN_TRIM(ATTVAL)
 1029                   IRET=NF90_PUT_ATT(NCID(I),NF90_GLOBAL,ATTNAME(1:STRL),A>
 1030                   CALL CHECK_ERR(IRET,1)
 1031                 END IF
 1032               END DO
 1033             END IF
 1034             CLOSE(994)
 1035 !
 1036             WRITE(GLOBALATT,'(A)') TRIM(NCFILE(I))
 1037             IRET=NF90_PUT_ATT(NCID(I),NF90_GLOBAL,'product_name' ,GLOBALA>
 1038             IRET=NF90_PUT_ATT(NCID(I),NF90_GLOBAL,'area',TRIM(GNAME))
 1039             IRET=NF90_PUT_ATT(NCID(I),NF90_GLOBAL,'data_type','OCO spectr>
 1040             IRET=NF90_PUT_ATT(NCID(I),NF90_GLOBAL,'format_version','1.1')
 1041             IRET=NF90_PUT_ATT(NCID(I),NF90_GLOBAL,'southernmost_latitude'>
 1042             IRET=NF90_PUT_ATT(NCID(I),NF90_GLOBAL,'northernmost_latitude'>
 1043             IRET=NF90_PUT_ATT(NCID(I),NF90_GLOBAL,'latitude_resolution','>
 1044             IRET=NF90_PUT_ATT(NCID(I),NF90_GLOBAL,'westernmost_longitude'>
 1045             IRET=NF90_PUT_ATT(NCID(I),NF90_GLOBAL,'easternmost_longitude'>
 
 
                                                         ww3_ounp.F90  page  20
 
 
 1046             IRET=NF90_PUT_ATT(NCID(I),NF90_GLOBAL,'longitude_resolution',>
 1047             IRET=NF90_PUT_ATT(NCID(I),NF90_GLOBAL,'minimum_altitude','n/a>
 1048             IRET=NF90_PUT_ATT(NCID(I),NF90_GLOBAL,'maximum_altitude','n/a>
 1049             IRET=NF90_PUT_ATT(NCID(I),NF90_GLOBAL,'altitude_resolution','>
 1050             IRET=NF90_PUT_ATT(NCID(I),NF90_GLOBAL,'start_date',STRSTARTDA>
 1051             IRET=NF90_PUT_ATT(NCID(I),NF90_GLOBAL,'stop_date',STRSTOPDATE)
 1052             IF (DTREQ.EQ.3600)  THEN
 1053               IRET=NF90_PUT_ATT(NCID(I),NF90_GLOBAL,'field_type','hourly')
 1054             ELSE IF (DTREQ.EQ.7200)  THEN
 1055               IRET=NF90_PUT_ATT(NCID(I),NF90_GLOBAL,'field_type','2-hourl>
 1056             ELSE IF (DTREQ.EQ.10800)  THEN
 1057               IRET=NF90_PUT_ATT(NCID(I),NF90_GLOBAL,'field_type','3-hourl>
 1058             ELSE IF (DTREQ.EQ.21600)  THEN
 1059               IRET=NF90_PUT_ATT(NCID(I),NF90_GLOBAL,'field_type','6-hourl>
 1060             ELSE IF (DTREQ.EQ.32400)  THEN
 1061               IRET=NF90_PUT_ATT(NCID(I),NF90_GLOBAL,'field_type','9-hourl>
 1062             ELSE IF (DTREQ.EQ.43200)  THEN
 1063               IRET=NF90_PUT_ATT(NCID(I),NF90_GLOBAL,'field_type','12-hour>
 1064             ELSE IF (DTREQ.EQ.86400)  THEN
 1065               IRET=NF90_PUT_ATT(NCID(I),NF90_GLOBAL,'field_type','daily')
 1066             ELSE
 1067               IRET=NF90_PUT_ATT(NCID(I),NF90_GLOBAL,'field_type','n/a')
 1068             END IF
 1069 !
 1070             ! Close netCDF file
 1071             IRET=NF90_ENDDEF(NCID(I))
 1072             CALL CHECK_ERR(IRET,2)
 1073             IRET=NF90_CLOSE(NCID(I))
 1074             CALL CHECK_ERR(IRET,3)
 1075 !
 1076           END IF ! FLREQ(I) .OR. TOGETHER
 1077         END DO ! I=1+(IFL-1)*MFL,(IFL-1)*MFL+NBFILEOUT
 1078                                                       
 1079                                                       
 1080 ! 7.2 Goes back to the start of the loop with the same points
 1081       ! but with a new date defined by the date division S3
 1082         IF ( (IOUT.GT.1) .AND. (INDEX(PASTDATE(1:S3),DATE(1:S3)).EQ.0) ) >
 1083           GOTO 560
 1084         END IF
 1085               
 1086               
 1087 ! 7.3 Reinitiazes TIME (close open out_pnt.ww3) and TOUT to process a new>
 1088         CLOSE(NDSOP) ! closes binary file out_pnt*
 1089         IPASS = 0   ! resets time counter for binary file out_pnt*
 1090         CALL W3IOPO ( 'READ', NDSOP, IOTEST )
 1091         TOUT=TOUTL
 1092         NOUT=NOUTL
 1093                   
 1094                   
 1095 ! 7.4 Loops on TIME till it is equal to TOUT
 1096         DTEST  = DSEC21 ( TIME , TOUT )
 1097         DO WHILE (DTEST.NE.0)
 1098           DTEST  = DSEC21 ( TIME , TOUT )
 1099           IF ( DTEST .GT. 0. ) THEN
 1100             CALL W3IOPO ( 'READ', NDSOP, IOTEST )
 
 
                                                         ww3_ounp.F90  page  21
 
 
 1101             IF ( IOTEST .EQ. -1 ) THEN
 1102               IF ( IAPROC .EQ. NAPOUT ) WRITE (NDSO,949)
 1103               GOTO 700
 1104             END IF
 1105             CYCLE
 1106           END IF
 1107           IF ( DTEST .LT. 0. ) THEN
 1108             CALL TICK21 ( TOUT , DTREQ )
 1109             CYCLE
 1110           END IF
 1111         END DO
 1112 !
 1113       END DO ! IFL=1,NFL
 1114 !
 1115       GOTO 888
 1116 !
 1117 ! Escape locations read errors :
 1118 !
 1119   800 CONTINUE
 1120       WRITE (NDSE,1000) IERR
 1121       CALL EXTCDE ( 40 )
 1122 !
 1123   801 CONTINUE
 1124       WRITE (NDSE,1001)
 1125       CALL EXTCDE ( 41 )
 1126 !
 1127   802 CONTINUE
 1128       WRITE (NDSE,1002) IERR
 1129       CALL EXTCDE ( 42 )
 1130 !
 1131   803 CONTINUE
 1132       WRITE (NDSE,1003)
 1133       CALL EXTCDE ( 43 )
 1134 !
 1135   804 CONTINUE
 1136       WRITE (NDSE,1004) NF90_INQ_LIBVERS()
 1137       CALL EXTCDE ( 44 )
 1138 !
 1139   888 CONTINUE
 1140 !
 1141       IF(ALLOCATED(THD)) DEALLOCATE(THD)
 1142       IF(ALLOCATED(NCID)) DEALLOCATE(NCID)
 1143       IF(ALLOCATED(NCFILE)) DEALLOCATE(NCFILE)
 1144       IF(ALLOCATED(INDREQ)) DEALLOCATE(INDREQ)
 1145 !
 1146       IF ( IAPROC .EQ. NAPOUT ) WRITE (NDSO,999)
 1147 !
 1148 ! Formats
 1149 !
 1150   900 FORMAT (/15X,'    *** WAVEWATCH III Point output post.***    '/ &
 1151                15X,'==============================================='/)
 1152   901 FORMAT ( '  Comment character is ''',A,''''/)
 1153 !
 1154   920 FORMAT ( '  Grid name : ',A/)
 1155 !
 
 
                                                         ww3_ounp.F90  page  22
 
 
 1156   930 FORMAT ( '  Points in file : '/                                 &
 1157                ' ------------------------------------')
 1158   931 FORMAT ( '      ',A,2F10.2)
 1159   932 FORMAT ( '      ',A,2(F8.1,'E3'))
 1160 !
 1161   940 FORMAT (/'  Output time data : '/                               &
 1162                ' --------------------------------------------------'/ &
 1163                '      First time         : ',A)
 1164   941 FORMAT ( '      Interval           : ',A/                       &
 1165                '      Number of requests : ',I8)
 1166   942 FORMAT (/'  Output type ',I2,' :'/                              &
 1167                ' --------------------------------------------------'/ &
 1168                '      ',A, I3 /)
 1169   943 FORMAT ( '      Subtype   : ',A)
 1170   944 FORMAT ( '                  ',A)
 1171   949 FORMAT (/'      End of file reached '/)
 1172 !
 1173   950 FORMAT (/'  Requested output for ',I6,' points : '/             &
 1174                ' --------------------------------------------------')
 1175   951 FORMAT ( '      ',A,2F10.2)
 1176   953 FORMAT ( '      ',A,2(F8.1,'E3'))
 1177   954 FORMAT (/'      New time step      : ',A)
 1178   955 FORMAT ( '  Processing time : ', 2I8, ' in ', I8, 'files. Step '&
 1179                I4, 'out of ', I4, 'pass ', I4)
 1180 !
 1181  1940 FORMAT ( '      ',A,' print plots not requested.')
 1182  1941 FORMAT ( '      ',A,' print plots normalized.')
 1183  1942 FORMAT ( '      Scale factor ',A,' spectrum : ',E10.3)
 1184 ! 1947 FORMAT ( '      File name : ',A)
 1185 !
 1186  2940 FORMAT ( '      Table output : ',A/                             &
 1187                '      File name    : ',A)
 1188 !
 1189  3940 FORMAT ( '                        ',A)
 1190  5940 FORMAT ( '      Buffer will be flushed every ',I6,' steps.')
 1191  5950 FORMAT ( '      Point already exists, it will be skipped : ', A)
 1192 !
 1193   999 FORMAT (/'  End of program '/                                   &
 1194                ' ========================================='/          &
 1195                '         WAVEWATCH III Point output '/)
 1196 !
 1197  1000 FORMAT (/' *** WAVEWATCH III ERROR IN W3OUNP : '/               &
 1198                '     ERROR IN OPENING INPUT FILE'/                    &
 1199                '     IOSTAT =',I5/)
 1200 !
 1201  1001 FORMAT (/' *** WAVEWATCH III ERROR IN W3OUNP : '/               &
 1202                '     PREMATURE END OF INPUT FILE'/)
 1203 !
 1204  1002 FORMAT (/' *** WAVEWATCH III ERROR IN W3OUNP : '/               &
 1205                '     ERROR IN READING FROM INPUT FILE'/               &
 1206                '     IOSTAT =',I5/)
 1207 !
 1208  1003 FORMAT (/' *** WAVEWATCH III ERROR IN W3OUNP : '/               &
 1209                '     NCTYPE=3 IS INCOMPATIBLE WITH'/                  &
 1210                '     THE OPTIMIZED DIMENSION ORDER'/)
 
 
                                                         ww3_ounp.F90  page  23
 
 
 1211 !
 1212  1004 FORMAT (/' *** WAVEWATCH III ERROR IN W3OUNP : '/               &
 1213                '     NCTYPE=4 IS INCOMPATIBLE WITH'/                  &
 1214                '     NETCDF LIBRARY USED :',A/)
 1215 !
 1216  1006 FORMAT (/' *** WAVEWATCH III ERROR IN W3OUNP : '/              &
 1217                '     ITYPE AND OTYPE COMBINATION NOT RECOGNIZED'/)
 1218 !
 1219  1007 FORMAT (/' *** WAVEWATCH III ERROR IN W3OUNP : '/              &
 1220                '     ERROR IN READING FROM INPUT FILE'/              &
 1221                '     LAST POINT INDEX IS NOT -1'/                    &
 1222                '     OR TOO MANY POINT INDEXES DEFINED'/)
 1223 !
 1224  1010 FORMAT (/' *** WAVEWATCH III ERROR IN W3OUNP : '/               &
 1225                '     ILLEGAL TYPE, ITYPE =',I4/)
 1226 !
 1227  1011 FORMAT (/' *** WAVEWATCH III ERROR IN W3OUNP : '/               &
 1228                '     ILLEGAL TYPE, OTYPE =',I4/)
 1229 !
 1230 !/
 1231 !/ Internal subroutine W3EXNC ---------------------------------------- /
 1232 !/
 1233       CONTAINS
 1234 !/ ------------------------------------------------------------------- /
 1235       SUBROUTINE W3EXNC(I,NCID,NREQ,INDREQ,ORDER)
 1236 !/
 1237 !/                  +-----------------------------------+
 1238 !/                  | WAVEWATCH III           NOAA/NCEP |
 1239 !/                  |            F. Ardhuin             |
 1240 !/                  |            M. Accensi             |
 1241 !/                  |                        FORTRAN 90 |
 1242 !/                  | Last update :         14-Mar-2013 |
 1243 !/                  +-----------------------------------+
 1244 !/
 1245 !/    01-Apr-2011 : Creation                            ( version 3.14 )
 1246 !/    14-Mar-2013 : Optimization and cleanup            ( version 4.10 )
 1247 !/
 1248 !  1. Purpose :
 1249 !
 1250 !     Perform actual point output.
 1251 !
 1252 !  3. Parameters :
 1253 !
 1254 !  4. Subroutines used :
 1255 !
 1256 !      Name      Type  Module   Description
 1257 !     ----------------------------------------------------------------
 1258 !      W3SPRn    Subr. W3SRCnMD Mean wave parameters for use in
 1259 !                               source terms.
 1260 !      W3FLXn    Subr. W3FLXnMD Flux/stress computation.
 1261 !      W3SLNn    Subr. W3SLNnMD Linear input.
 1262 !      W3SINn    Subr. W3SRCnMD Input source term.
 1263 !      W3SDSn    Subr. W3SRCnMD Whitecapping source term
 1264 !      W3SNLn    Subr. W3SNLnMD Nonlinear interactions.
 1265 !      W3SBTn    Subr. W3SBTnMD Bottom friction source term.
 
 
                                                         ww3_ounp.F90  page  24
 
 
 1266 !      W3SDBn    Subr. W3SBTnMD Depth induced breaking source term.
 1267 !      W3STRn    Subr. W3STRnMD Triad interaction source term.
 1268 !      W3SBSn    Subr. W3SBSnMD Bottom scattering source term.
 1269 !      W3SXXn    Subr. W3SXXnMD Unclassified source term.
 1270 !      W3PART    Sunr. W3PARTMD Spectral partitioning routine.
 1271 !      STRACE    Subr. W3SERVMD Subroutine tracing.
 1272 !      STME21    Subr. W3TIMEMD Convert time to string.
 1273 !      PRT1DS    Subr. W3ARRYMD Print plot of 1-D spectrum.
 1274 !      PRT1DM    Subr.   Id.    Print plot of several 1-D spectra.
 1275 !      PRT2DS    Subr.   Id.    Print plot of 2-D spectrum.
 1276 !      WAVNU1    Subr. W3DISPMD Solve dispersion relation.
 1277 !     ----------------------------------------------------------------
 1278 !
 1279 !  5. Called by :
 1280 !
 1281 !     Main program in which it is contained,
 1282 !
 1283 !  6. Error messages :
 1284 !
 1285 !     None.
 1286 !
 1287 !  7. Remarks :
 1288 !
 1289 !     - Spectra are relative frequency energy spectra.
 1290 !     - Note that arrays CX and CY of the main program now contain
 1291 !       the absolute sea water speed and direction respectively.
 1292 !
 1293 !  8. Structure :
 1294 !
 1295 !     See source code.
 1296 !
 1297 !  9. Switches :
 1298 !
 1299 !       !/S      Enable subroutine tracing.
 1300 !       !/T      Enable test output.
 1301 !
 1302 !       !/FLXx   Flux/stress computation.
 1303 !       !/LNx    Linear input package
 1304 !       !/STx    Source term package
 1305 !       !/NLx    Nonlinear interaction package
 1306 !       !/BTx    Bottom friction package
 1307 !       !/ICx    S_ice source term package
 1308 !       !/DBx    Depth-induced breaking package
 1309 !       !/TRx    Triad interaction package
 1310 !       !/BSx    Bottom scattering package
 1311 !       !/XXx    Arbitrary adittional source term package
 1312 !
 1313 !       !/STAB2  Stability correction for !/ST2
 1314 !
 1315 ! 10. Source code :
 1316 !
 1317 !/ ------------------------------------------------------------------- /
 1318       USE W3SLN1MD
 1319       USE W3SRC4MD, ONLY : W3SPR4, W3SIN4, W3SDS4
 1320       USE W3SNL1MD
 
 
                                                         ww3_ounp.F90  page  25
 
 
 1321       USE W3PARTMD, ONLY: W3PART
 1322       USE W3DISPMD, ONLY: WAVNU1, LIU_FORWARD_DISPERSION
 1323       USE W3GDATMD, ONLY: IICEDISP
 1324 !/
 1325       USE W3ARRYMD, ONLY: PRT1DS, PRT2DS, PRT1DM
 1326       USE W3DISPMD, ONLY: NAR1D, DFAC, N1MAX, ECG1, EWN1, DSIE
 1327       USE NETCDF
 1328        USE W3GIG1MD, ONLY: W3ADDIG
 1329        USE W3CANOMD, ONLY: W3ADD2NDORDER
 1330                                         
 1331       IMPLICIT NONE
 1332                    
 1333 !/
 1334 !/ ------------------------------------------------------------------- /
 1335                                                                         
 1336       INTEGER, INTENT(IN)     :: I, NCID, NREQ, INDREQ(NREQ)
 1337       LOGICAL, INTENT(IN)     :: ORDER
 1338                                       
 1339                                       
 1340                                       
 1341 !/ Local parameters
 1342 !/
 1343       INTEGER                 :: J, J1, I1, I2, ISP, IKM, IKL, IKH,    &
 1344                                  ITH, IK, ITT, NPART, IX, IY, ISEA
 1345       INTEGER                 :: CURDATE(8), REFDATE(8)
 1346 !
 1347       REAL                    :: DEPTH, SQRTH, CDIR, SIX, R1, R2,      &
 1348                                  UDIR, UDIRR, UABS, XL, XH, XL2, XH2,  &
 1349                                  ET, EWN, ETR, ETX, ETY, EBND, EBX,    &
 1350                                  EBY, HSIG, WLEN, TMEAN, THMEAN,       &
 1351                                  THSPRD, EMAX, EL, EH, DENOM, FP, THP, &
 1352                                  SPP, CD, USTAR, FACTOR, UNORM, ESTAR, &
 1353                                  FPSTAR, FACF, FACE, FACS, HMAT, WNA,  &
 1354                                  XYZ, AGE1, AFR, AGE2, FACT, XSTAR,    &
 1355                                  YSTAR, FHIGH, ZWND, Z0, USTD, EMEAN,  &
 1356                                  FMEAN, WNMEAN, UDIRCA, CHARN, M2KM,   &
 1357                                  ICETHICK, ICECON
 1358       REAL                    :: WN_R(NK),CG_ICE(NK), ALPHA_LIU(NK),   &
 1359                                  R(NK), WN(NK), CG(NK), APM(NK),       &
 1360                                  E3(NTH,NK,NREQ), E(NK,NTH), E1(NK),   &
 1361                                  THBND(NK), SPBND(NK), A(NTH,NK),      &
 1362                                  WN2(NTH,NK),                          &
 1363                                  STT(NK,NTH), SWN(NK,NTH), SNL(NK,NTH),&
 1364                                  SDS(NK,NTH), SBT(NK,NTH), SIS(NK,NTH),&
 1365                                  XIN(NTH,NK), XNL(NTH,NK), XTR(NTH,NK),&
 1366                                  XDS(NTH,NK), XDB(NTH,NK), XBT(NTH,NK),&
 1367                                  XBS(NTH,NK), XXX(NTH,NK), DIA(NTH,NK),&
 1368                                  XLN(NTH,NK), XWL(NTH,NK), XIS(NTH,NK),&
 1369                                  SIN1(NK), SNL1(NK), SDS1(NK),         &
 1370                                  SBT1(NK), SIS1(NK), STT1(NK),         &
 1371                                  E1ALL(NK,6), UDIR1(NREQ), CDIR1(NREQ)
 1372       REAL, SAVE              :: HSMIN  = 0.05
 1373       REAL                    :: AMAX, FMEANS, FMEANWS, TAUWX, TAUWY, &
 1374                                  TAUWNX, TAUWNY, FMEAN1, WHITECAP(1:4)
 1375       REAL                    :: LAMBDA(NSPEC), DLWMEAN
 
 
                                                         ww3_ounp.F90  page  26
 
 
 1376            REAL                    :: ICE
 1377 !
 1378       DOUBLE PRECISION        :: OUTJULDAY
 1379 !
 1380       CHARACTER*4             :: VAR1(6)
 1381 !
 1382       LOGICAL                 :: LASTSTATION=.FALSE.
 1383       LOGICAL                 :: SHORT=.TRUE.
 1384       LOGICAL                   :: LBREAK
 1385       LOGICAL                 :: LLWS(NSPEC)
 1386 !
 1387       DATA VAR1   / 'Sin ' , 'Snl ', 'Sds ' , 'Sbt ' , 'Sice', 'Stot' /
 1388                                                                        
 1389                                                                        
 1390                                                                        
 1391 !/
 1392 !/ ------------------------------------------------------------------- /
 1393 !/
 1394 ! 1. Initialisations
 1395 !
 1396       IF ( FLAGLL ) THEN
 1397         M2KM   = 1.
 1398       ELSE
 1399         M2KM   = 1.E-3
 1400       END IF
 1401 !
 1402       XL     = 1./XFR - 1.
 1403       XH     =  XFR - 1.
 1404       XL2    = XL**2
 1405       XH2    = XH**2
 1406 !
 1407       IF ( ITYPE .EQ. 3 ) THEN
 1408         XLN = 0.
 1409         XIN = 0.
 1410         XNL = 0.
 1411         XTR = 0.
 1412         XDS = 0.
 1413         XDB = 0.
 1414         XBT = 0.
 1415         XBS = 0.
 1416         XWL = 0.
 1417         XIS = 0.
 1418         XXX = 0.
 1419       END IF
 1420 !
 1421       CALL U2D('days since 1990-01-01 00:00:00',REFDATE,IERR)
 1422 !
 1423  
 1424 !
 1425 !--- - - - - - - - - - - - - - - - - - - - - - - - - - - - - - - - - -
 1426 !     Loop over output points.
 1427 !
 1428  
 1429  
 1430  
 
 
                                                         ww3_ounp.F90  page  27
 
 
 1431 !
 1432 ! Selects first station index
 1433 !
 1434       IF (TOGETHER) THEN
 1435         J=1
 1436       ELSE
 1437         J=I
 1438         END IF
 1439 !
 1440 ! Short version of the ww3_ounp code for ITYPE = 1
 1441 !                                    and OTYPE = 3
 1442 !
 1443       IF (SHORT.AND.ITYPE.EQ.1.AND.OTYPE.EQ.3) THEN
 1444                                                    
 1445           DEPTH  = MAX ( DMIN, DPO(J) )
 1446           SQRTH  = SQRT ( DEPTH )
 1447           DO IK=1, NK
 1448             SIX    = SIG(IK) * SQRTH
 1449             I1     = INT(SIX/DSIE)
 1450             IF (I1.LE.N1MAX) THEN
 1451               I2 = I1 + 1
 1452               R1 = SIX/DSIE - REAL(I1)
 1453               R2 = 1. - R1
 1454               WN(IK) = ( R2*EWN1(I1) + R1*EWN1(I2) ) / DEPTH
 1455               CG(IK) = ( R2*ECG1(I1) + R1*ECG1(I2) ) * SQRTH
 1456             ELSE
 1457               WN(IK) = SIG(IK)*SIG(IK)/GRAV
 1458               CG(IK) = 0.5 * GRAV / SIG(IK)
 1459               END IF
 1460 !
 1461             END DO
 1462                   
 1463 !
 1464 ! Computes 2nd order spectrum
 1465 !
 1466       IF (IGPARS(2).EQ.1) THEN
 1467         IF(IGPARS(1).EQ.1) THEN
 1468           CALL W3ADDIG(SPCO(:,J),DPO(J),WN,CG,0)
 1469         ELSE
 1470           CALL W3ADD2NDORDER(SPCO(:,J),DPO(J),WN,CG,0)
 1471           END IF
 1472         END IF
 1473 !
 1474  
 1475         DO J1=1, NREQ
 1476           DO IK=1, NK
 1477             DO ITH=1, NTH
 1478               ISP    = ITH + (IK-1)*NTH
 1479               E3(ITH,IK,J1) = SPCO(ISP,INDREQ(J1))
 1480             END DO
 1481           END DO
 1482         END DO
 1483               
 1484         CALL T2D(TIME,CURDATE,IERR)
 1485         OUTJULDAY=TSUB(REFDATE,CURDATE)
 
 
                                                         ww3_ounp.F90  page  28
 
 
 1486         IRET=NF90_PUT_VAR(NCID,VARID(1),OUTJULDAY,(/IOUT/))
 1487         CALL CHECK_ERR(IRET,4)
 1488 !
 1489         IF (IOUT.EQ.1) THEN
 1490           DO J1=1, NREQ
 1491             IRET=NF90_PUT_VAR(NCID,VARID(27),INDREQ(J1),(/J1/))
 1492             CALL CHECK_ERR(IRET,5)
 1493             IRET=NF90_PUT_VAR(NCID,VARID(2),PTNME(INDREQ(J1)),         &
 1494                 start=(/1,J1/),count=(/LEN_TRIM(PTNME(INDREQ(J1))) ,1/))
 1495             CALL CHECK_ERR(IRET,6)
 1496           END DO
 1497         END IF
 1498 !
 1499         DO J1=1, NREQ
 1500           IF ((FLWW3.NE.0).AND.(ORDER)) IRET=NF90_PUT_VAR(NCID,VARID(3),F>
 1501           IF ((FLWW3.NE.0).AND.(.NOT.ORDER)) IRET=NF90_PUT_VAR(NCID,VARID>
 1502           CALL CHECK_ERR(IRET,7)
 1503         END DO
 1504 !
 1505         IF(ORDER) IRET=NF90_PUT_VAR(NCID,VARID(4),M2KM*PTLOC(1,INDREQ(1:N>
 1506         IF(.NOT.ORDER) IRET=NF90_PUT_VAR(NCID,VARID(4),M2KM*PTLOC(1,INDRE>
 1507         CALL CHECK_ERR(IRET,8)
 1508         IF(ORDER) IRET=NF90_PUT_VAR(NCID,VARID(5),M2KM*PTLOC(2,INDREQ(1:N>
 1509         IF(.NOT.ORDER) IRET=NF90_PUT_VAR(NCID,VARID(5),M2KM*PTLOC(2,INDRE>
 1510         CALL CHECK_ERR(IRET,9)
 1511 !
 1512         DO J1=1,NREQ
 1513           UDIR1(J1)  = MOD ( 270. - WDO(INDREQ(J1))*RADE , 360. )
 1514           CDIR1(J1)   = MOD ( 270. - CDO(INDREQ(J1))*RADE , 360. )
 1515         END DO
 1516 !
 1517         IF(ORDER) IRET=NF90_PUT_VAR(NCID,VARID(11),DPO(INDREQ(1:NREQ)),(/>
 1518         IF(.NOT.ORDER) IRET=NF90_PUT_VAR(NCID,VARID(11),DPO(INDREQ(1:NREQ>
 1519         CALL CHECK_ERR(IRET,10)
 1520         IF(ORDER) IRET=NF90_PUT_VAR(NCID,VARID(12),WAO(INDREQ(1:NREQ)),(/>
 1521         IF(.NOT.ORDER) IRET=NF90_PUT_VAR(NCID,VARID(12),WAO(INDREQ(1:NREQ>
 1522         CALL CHECK_ERR(IRET,11)
 1523         IF(ORDER) IRET=NF90_PUT_VAR(NCID,VARID(13),UDIR1,(/1,IOUT/))
 1524         IF(.NOT.ORDER) IRET=NF90_PUT_VAR(NCID,VARID(13),UDIR1,(/IOUT,1/))
 1525         CALL CHECK_ERR(IRET,12)
 1526         IF(ORDER) IRET=NF90_PUT_VAR(NCID,VARID(14),CAO(INDREQ(1:NREQ)),(/>
 1527         IF(.NOT.ORDER) IRET=NF90_PUT_VAR(NCID,VARID(14),CAO(INDREQ(1:NREQ>
 1528         CALL CHECK_ERR(IRET,13)
 1529         IF(ORDER) IRET=NF90_PUT_VAR(NCID,VARID(15),CDIR1,(/1,IOUT/))
 1530         IF(.NOT.ORDER) IRET=NF90_PUT_VAR(NCID,VARID(15),CDIR1,(/IOUT,1/))
 1531         CALL CHECK_ERR(IRET,14)
 1532 !
 1533         IF(ORDER) IRET=NF90_PUT_VAR(NCID,VARID(10),E3(1:NTH,1:NK,1:NREQ),>
 1534                            start=(/1,1,1,IOUT/),count=(/NTH,NK,NREQ,1/))
 1535         IF(.NOT.ORDER) IRET=NF90_PUT_VAR(NCID,VARID(10),E3(1:NTH,1:NK,1:N>
 1536                            start=(/1,1,IOUT,1/),count=(/NTH,NK,1,NREQ/))
 1537         CALL CHECK_ERR(IRET,15)
 1538 !
 1539 ! End of short version
 1540 !
 
 
                                                         ww3_ounp.F90  page  29
 
 
 1541       ELSE
 1542 !
 1543 ! And here is the full thing with all options ITYPE and OTYPE ...
 1544 !
 1545       J1=1
 1546       LASTSTATION=.FALSE.
 1547 !
 1548       DO WHILE (.NOT.LASTSTATION)
 1549 !
 1550         IF ( FLREQ(J) ) THEN
 1551 !
 1552 !  Open netCDF file
 1553 !
 1554 ! 2. Calculate grid parameters using and inlined version of WAVNU1.
 1555 !
 1556           DEPTH    = MAX ( DMIN, DPO(J) )
 1557           SQRTH    = SQRT ( DEPTH )
 1558           UDIR     = MOD ( 270. - WDO(J)*RADE , 360. )
 1559           UDIRCA   = WDO(J)*RADE
 1560           UDIRR    = WDO(J)
 1561           UABS     = MAX ( 0.001 , WAO(J) )
 1562           CDIR     = MOD ( 270. - CDO(J)*RADE , 360. )
 1563           ICETHICK = MAX (0., ICEHO(J))
 1564           ICECON   = MAX (0., ICEO(J))
 1565 !
 1566           DO IK=1, NK
 1567             SIX    = SIG(IK) * SQRTH
 1568             I1     = INT(SIX/DSIE)
 1569             IF (I1.LE.N1MAX) THEN
 1570               I2 = I1 + 1
 1571               R1 = SIX/DSIE - REAL(I1)
 1572               R2 = 1. - R1
 1573               WN(IK) = ( R2*EWN1(I1) + R1*EWN1(I2) ) / DEPTH
 1574               CG(IK) = ( R2*ECG1(I1) + R1*ECG1(I2) ) * SQRTH
 1575             ELSE
 1576               WN(IK) = SIG(IK)*SIG(IK)/GRAV
 1577               CG(IK) = 0.5 * GRAV / SIG(IK)
 1578             END IF
 1579 !
 1580           END DO
 1581 !
 1582 ! Computes 2nd order spectrum
 1583 !
 1584       IF (IGPARS(2).EQ.1) THEN
 1585         IF(IGPARS(1).EQ.1) THEN
 1586           CALL W3ADDIG(SPCO(:,J),DPO(J),WN,CG,0)
 1587         ELSE
 1588           CALL W3ADD2NDORDER(SPCO(:,J),DPO(J),WN,CG,0)
 1589           END IF
 1590         END IF
 1591 !
 1592 ! 3.  Prepare spectra etc.
 1593 ! 3.a Mean wave parameters.
 1594 !
 1595           ET     = 0.
 
 
                                                         ww3_ounp.F90  page  30
 
 
 1596           EWN    = 0.
 1597           ETR    = 0.
 1598           ETX    = 0.
 1599           ETY    = 0.
 1600           DO IK=1, NK
 1601             EBND   = 0.
 1602             EBX    = 0.
 1603             EBY    = 0.
 1604             DO ITH=1, NTH
 1605               ISP    = ITH + (IK-1)*NTH
 1606               E(IK,ITH) = SPCO(ISP,J)
 1607               EBND   = EBND + SPCO(ISP,J)
 1608               EBX    = EBX  + SPCO(ISP,J)*ECOS(ITH)
 1609               EBY    = EBY  + SPCO(ISP,J)*ESIN(ITH)
 1610             END DO
 1611             E1(IK) = EBND * DTH
 1612             APM(IK)= E1(IK) / ( TPI * GRAV**2 / SIG(IK)**5  )
 1613             IF ( E1(IK) .GT. 1.E-5) THEN
 1614               THBND(IK) = MOD(630.- RADE*ATAN2(EBY,EBX),360.)
 1615               SPBND(IK) = RADE * SQRT ( MAX ( 0. , 2.*( 1. -      &
 1616                 SQRT( MAX(0.,(EBX**2+EBY**2)/EBND**2) ) ) ) )
 1617             ELSE
 1618               THBND(IK) = -999.9
 1619               SPBND(IK) = -999.9
 1620             END IF
 1621             EBND   = E1(IK) * DSII(IK) * TPIINV
 1622             ET     = ET  + EBND
 1623             EWN    = EWN + EBND / WN(IK)
 1624             ETR    = ETR + EBND / SIG(IK)
 1625             ETX    = ETX + EBX * DSII(IK)
 1626             ETY    = ETY + EBY * DSII(IK)
 1627           END DO
 1628 !
 1629 ! tail factors for radian action etc ...!
 1630 !
 1631           EBND   = E1(NK) * TPIINV / ( SIG(NK) * DTH )
 1632           ET     = ET  + FTE *EBND
 1633           EWN    = EWN + FTWL*EBND
 1634           ETR    = ETR + FTTR*EBND
 1635           ETX    = DTH*ETX*TPIINV + FTE*EBX*TPIINV/SIG(NK)
 1636           ETY    = DTH*ETY*TPIINV + FTE*EBY*TPIINV/SIG(NK)
 1637 !
 1638           HSIG   = 4. * SQRT ( ET )
 1639           IF ( HSIG .GT. HSMIN ) THEN
 1640             WLEN   = EWN / ET * TPI
 1641             TMEAN  = ETR / ET * TPI
 1642             THMEAN = MOD ( 630. - RADE*ATAN2(ETY,ETX) , 360. )
 1643             THSPRD = RADE * SQRT ( MAX ( 0. , 2.*( 1. - SQRT(     &
 1644                        MAX(0.,(ETX**2+ETY**2)/ET**2) ) ) ) )
 1645             IF ( THSPRD .LT. 0.01*RADE*DTH ) THSPRD = 0.
 1646           ELSE
 1647             WLEN   = 0.
 1648             TMEAN  = 0.
 1649             THMEAN = 0.
 1650             THSPRD = 0.
 
 
                                                         ww3_ounp.F90  page  31
 
 
 1651             E1(1:NK) = 0.
 1652             E(1:NK,1:NTH) = 0.
 1653           END IF
 1654 !
 1655 ! 3.b peak frequency
 1656 !
 1657           EMAX   = E1(NK)
 1658           IKM    = NK
 1659 !
 1660           DO IK=NK-1, 1, -1
 1661             IF ( E1(IK) .GT. EMAX ) THEN
 1662               EMAX   = E1(IK)
 1663               IKM    = IK
 1664             END IF
 1665           END DO
 1666 !
 1667           IKL    = MAX (  1 , IKM-1 )
 1668           IKH    = MIN ( NK , IKM+1 )
 1669           EL     = E1(IKL) - E1(IKM)
 1670           EH     = E1(IKH) - E1(IKM)
 1671           DENOM  = XL*EH - XH*EL
 1672 !
 1673           IF ( HSIG .GE. HSMIN ) THEN
 1674             FP     = SIG(IKM) * ( 1. + 0.5 * ( XL2*EH - XH2*EL )  &
 1675                         / SIGN ( MAX(ABS(DENOM),1.E-15) , DENOM ) )
 1676             THP    = THBND(IKM)
 1677             SPP    = SPBND(IKM)
 1678             IF ( SPP .LT. 0.01*RADE*DTH ) SPP = 0.
 1679           ELSE
 1680             FP     = 0.
 1681             THP    = 0.
 1682             SPP    = 0.
 1683           END IF
 1684 !
 1685 ! 3.c spectral partitioning
 1686 !
 1687           IF ( ITYPE.EQ.1 .AND. OTYPE.EQ.4 ) THEN
 1688             CALL W3PART( E, UABS, UDIRCA, DEPTH, WN, NPART, XPART, &
 1689                                                        DIMXP )
 1690           END IF
 1691 !
 1692 ! 3.d nondimensional parameters
 1693 !
 1694           IF ( ( ITYPE.EQ.2 .AND. (OTYPE.EQ.3.OR.OTYPE.EQ.4) ) .OR. &
 1695              ( ITYPE.EQ.1 .AND. (OTYPE.EQ.2) ) ) THEN
 1696 !
 1697             DO IK=1, NK
 1698               FACTOR = TPIINV * CG(IK) / SIG(IK)
 1699               DO ITH=1, NTH
 1700                 ISP    = ITH + (IK-1)*NTH
 1701                 A(ITH,IK)   = FACTOR * SPCO(ISP,J)
 1702                 WN2(ITH,IK) = WN(IK)
 1703               END DO
 1704             END DO
 1705 !
 
 
                                                         ww3_ounp.F90  page  32
 
 
 1706                 LLWS(:)  = .TRUE.
 1707                 ZWND   = ZZWND
 1708                 TAUWX  = 0.
 1709                 TAUWY  = 0.
 1710                            
 1711 !
 1712                 CALL W3SPR4 (A, CG, WN, EMEAN, FMEAN, FMEAN1,       &
 1713                              WNMEAN, AMAX, UABS, UDIRR, USTAR, USTD,&
 1714                              TAUWX, TAUWY, CD, Z0, CHARN, LLWS, FMEANWS, >
 1715 !
 1716             DO ITT=1, 3
 1717                   IX=1
 1718                   IY=1
 1719                    CALL W3SPR4 (A, CG, WN, EMEAN, FMEAN, FMEAN1,      &
 1720                              WNMEAN, AMAX, UABS, UDIRR, USTAR, USTD,&
 1721                              TAUWX, TAUWY, CD, Z0, CHARN, LLWS, FMEANWS,D>
 1722                    CALL W3SDS4 ( A, WN, CG, USTAR,  USTD, DEPTH, XDS,   &
 1723                               DIA, IX, IY, LAMBDA, WHITECAP, DLWMEAN )
 1724                    CALL W3SIN4 (A, CG, WN2, UABS, USTAR, DAIR/DWAT,     &
 1725                            ASO(J), UDIRR, Z0, CD, TAUWX, TAUWY, TAUWNX, &
 1726                            TAUWNY, XIN, DIA, LLWS, IX, IY, LAMBDA )
 1727             END DO
 1728 !
 1729 ! Add alternative flux calculations here as part of !/ST2 option ....
 1730 ! Also add before actual source term calculation !!!
 1731 !
 1732             IF ( WAO(J) .LT. 0.01 ) THEN
 1733               UNORM  = 0.
 1734               ESTAR  = 0.
 1735               FPSTAR = 0.
 1736             ELSE
 1737               IF ( OTYPE.EQ.3 ) THEN
 1738                 UNORM  = USTAR
 1739               ELSE
 1740                 UNORM  = WAO(J)
 1741               END IF
 1742               ESTAR  = ET * GRAV**2 / UNORM**4
 1743               FPSTAR = FP * TPIINV * UNORM / GRAV
 1744               XSTAR  = PTLOC(1,J) * GRAV / UNORM**2
 1745               YSTAR  = PTLOC(2,J) * GRAV / UNORM**2
 1746               IF ( FLAGLL ) THEN
 1747                 XSTAR  = XSTAR * DERA * RADIUS &
 1748                        * COS(PTLOC(2,J)*DERA)
 1749                 YSTAR  = YSTAR * DERA * RADIUS
 1750               END IF
 1751             END IF
 1752 !
 1753           END IF ! 3.d
 1754                       
 1755 !
 1756 ! 3.e source terms
 1757 !
 1758           IF ( ITYPE.EQ.3 ) THEN
[...]
 4282         IF (NCTYPE.EQ.4) IRET=NF90_DEF_VAR_DEFLATE(NCID, VARID(7), 1, 1, >
 4283         IRET=NF90_PUT_ATT(NCID,VARID(7),'long_name','frequency of lower b>
 4284         IRET=NF90_PUT_ATT(NCID,VARID(7),'standard_name','frequency_of_low>
 4285         IRET=NF90_PUT_ATT(NCID,VARID(7),'globwave_name','frequency_lower_>
 4286         IRET=NF90_PUT_ATT(NCID,VARID(7),'units','s-1')
 4287         IRET=NF90_PUT_ATT(NCID,VARID(7),'scale_factor',1.)
 4288         IRET=NF90_PUT_ATT(NCID,VARID(7),'add_offset',0.)
 4289         IRET=NF90_PUT_ATT(NCID,VARID(7),'valid_min',0.)
 4290         IRET=NF90_PUT_ATT(NCID,VARID(7),'valid_max',10.)
 
 
                                                         ww3_ounp.F90  page  79
 
 
 4291         IRET=NF90_PUT_ATT(NCID,VARID(7),'_FillValue',NF90_FILL_FLOAT)
 4292         IRET=NF90_PUT_ATT(NCID,VARID(7),'content','Y')
 4293         IRET=NF90_PUT_ATT(NCID,VARID(7),'associates','frequency')
 4294                                                                  
 4295 !frequency2
 4296         IRET=NF90_DEF_VAR(NCID, 'frequency2', NF90_FLOAT, (/DIMID(4)/), V>
 4297         IF (NCTYPE.EQ.4) IRET=NF90_DEF_VAR_DEFLATE(NCID, VARID(8), 1, 1, >
 4298         IRET=NF90_PUT_ATT(NCID,VARID(8),'long_name','frequency of upper b>
 4299         IRET=NF90_PUT_ATT(NCID,VARID(8),'standard_name','frequency_of_upp>
 4300         IRET=NF90_PUT_ATT(NCID,VARID(8),'globwave_name','frequency_upper_>
 4301         IRET=NF90_PUT_ATT(NCID,VARID(8),'units','s-1')
 4302         IRET=NF90_PUT_ATT(NCID,VARID(8),'scale_factor',1.)
 4303         IRET=NF90_PUT_ATT(NCID,VARID(8),'add_offset',0.)
 4304         IRET=NF90_PUT_ATT(NCID,VARID(8),'valid_min',0.)
 4305         IRET=NF90_PUT_ATT(NCID,VARID(8),'valid_max',10.)
 4306         IRET=NF90_PUT_ATT(NCID,VARID(8),'_FillValue',NF90_FILL_FLOAT)
 4307         IRET=NF90_PUT_ATT(NCID,VARID(8),'content','Y')
 4308         IRET=NF90_PUT_ATT(NCID,VARID(8),'associates','frequency')
 4309                                                                  
 4310                                                                  
 4311 !direction
 4312         IRET=NF90_DEF_VAR(NCID, 'direction', NF90_FLOAT, (/DIMID(5)/), VA>
 4313         IF (NCTYPE.EQ.4) IRET=NF90_DEF_VAR_DEFLATE(NCID, VARID(9), 1, 1, >
 4314         IRET=NF90_PUT_ATT(NCID,VARID(9),'long_name','sea surface wave to >
 4315         IRET=NF90_PUT_ATT(NCID,VARID(9),'standard_name','sea_surface_wave>
 4316         IRET=NF90_PUT_ATT(NCID,VARID(9),'globwave_name','direction')
 4317         IRET=NF90_PUT_ATT(NCID,VARID(9),'units','degree')
 4318         IRET=NF90_PUT_ATT(NCID,VARID(9),'scale_factor',1.)
 4319         IRET=NF90_PUT_ATT(NCID,VARID(9),'add_offset',0.)
 4320         IRET=NF90_PUT_ATT(NCID,VARID(9),'valid_min',0.)
 4321         IRET=NF90_PUT_ATT(NCID,VARID(9),'valid_max',360.)
 4322         IRET=NF90_PUT_ATT(NCID,VARID(9),'_FillValue',NF90_FILL_FLOAT)
 4323         IRET=NF90_PUT_ATT(NCID,VARID(9),'axis','Z')
 4324                                                    
 4325 !d
 4326         IRET=NF90_DEF_VAR(NCID, 'dpt', NF90_FLOAT, (/ DIMID(TWO),DIMID(ON>
 4327         IF (NCTYPE.EQ.4) IRET=NF90_DEF_VAR_DEFLATE(NCID, VARID(10), 1, 1,>
 4328         IRET=NF90_PUT_ATT(NCID,VARID(10),'long_name','depth')
 4329         IRET=NF90_PUT_ATT(NCID,VARID(10),'standard_name','depth')
 4330         IRET=NF90_PUT_ATT(NCID,VARID(10),'globwave_name','depth')
 4331         IRET=NF90_PUT_ATT(NCID,VARID(10),'units','m')
 4332         IRET=NF90_PUT_ATT(NCID,VARID(10),'scale_factor',1.)
 4333         IRET=NF90_PUT_ATT(NCID,VARID(10),'add_offset',0.)
 4334         IRET=NF90_PUT_ATT(NCID,VARID(10),'valid_min',-100.)
 4335         IRET=NF90_PUT_ATT(NCID,VARID(10),'valid_max',10000.)
 4336         IRET=NF90_PUT_ATT(NCID,VARID(10),'_FillValue',NF90_FILL_FLOAT)
 4337         IRET=NF90_PUT_ATT(NCID,VARID(10),'content','TX')
 4338         IRET=NF90_PUT_ATT(NCID,VARID(10),'associates','time station')
 4339                                                                      
 4340 !U10
 4341         IRET=NF90_DEF_VAR(NCID, 'wnd', NF90_FLOAT, (/ DIMID(TWO),DIMID(ON>
 4342         IF (NCTYPE.EQ.4) IRET=NF90_DEF_VAR_DEFLATE(NCID, VARID(11), 1, 1,>
 4343         IRET=NF90_PUT_ATT(NCID,VARID(11),'long_name','wind speed at 10m')
 4344         IRET=NF90_PUT_ATT(NCID,VARID(11),'standard_name','wind_speed')
 4345         IRET=NF90_PUT_ATT(NCID,VARID(11),'globwave_name','wind_speed')
 
 
                                                         ww3_ounp.F90  page  80
 
 
 4346         IRET=NF90_PUT_ATT(NCID,VARID(11),'units','m s-1')
 4347         IRET=NF90_PUT_ATT(NCID,VARID(11),'scale_factor',1.)
 4348         IRET=NF90_PUT_ATT(NCID,VARID(11),'add_offset',0.)
 4349         IRET=NF90_PUT_ATT(NCID,VARID(11),'valid_min',0.)
 4350         IRET=NF90_PUT_ATT(NCID,VARID(11),'valid_max',100.)
 4351         IRET=NF90_PUT_ATT(NCID,VARID(11),'_FillValue',NF90_FILL_FLOAT)
 4352         IRET=NF90_PUT_ATT(NCID,VARID(11),'content','TX')
 4353         IRET=NF90_PUT_ATT(NCID,VARID(11),'associates','time station')
 4354 !Dir
 4355         IRET=NF90_DEF_VAR(NCID, 'wnddir', NF90_FLOAT, (/ DIMID(TWO),DIMID>
 4356         IF (NCTYPE.EQ.4) IRET=NF90_DEF_VAR_DEFLATE(NCID, VARID(12), 1, 1,>
 4357         IRET=NF90_PUT_ATT(NCID,VARID(12),'long_name','wind direction')
 4358         IRET=NF90_PUT_ATT(NCID,VARID(12),'standard_name','wind_from_direc>
 4359         IRET=NF90_PUT_ATT(NCID,VARID(12),'standard_name','wind_from_direc>
 4360         IRET=NF90_PUT_ATT(NCID,VARID(12),'units','degree')
 4361         IRET=NF90_PUT_ATT(NCID,VARID(12),'scale_factor',1.)
 4362         IRET=NF90_PUT_ATT(NCID,VARID(12),'add_offset',0.)
 4363         IRET=NF90_PUT_ATT(NCID,VARID(12),'valid_min',0.)
 4364         IRET=NF90_PUT_ATT(NCID,VARID(12),'valid_max',360.)
 4365         IRET=NF90_PUT_ATT(NCID,VARID(12),'_FillValue',NF90_FILL_FLOAT)
 4366         IRET=NF90_PUT_ATT(NCID,VARID(12),'content','TX')
 4367         IRET=NF90_PUT_ATT(NCID,VARID(12),'associates','time station')
 4368                                                                      
 4369 !Uc
 4370         IRET=NF90_DEF_VAR(NCID, 'cur', NF90_FLOAT, (/ DIMID(TWO),DIMID(ON>
 4371         IF (NCTYPE.EQ.4) IRET=NF90_DEF_VAR_DEFLATE(NCID, VARID(13), 1, 1,>
 4372         IRET=NF90_PUT_ATT(NCID,VARID(13),'long_name','sea water speed')
 4373         IRET=NF90_PUT_ATT(NCID,VARID(13),'standard_name','sea_water_speed>
 4374         IRET=NF90_PUT_ATT(NCID,VARID(13),'globwave_name','sea_water_speed>
 4375         IRET=NF90_PUT_ATT(NCID,VARID(13),'units','m s-1')
 4376         IRET=NF90_PUT_ATT(NCID,VARID(13),'scale_factor',1.)
 4377         IRET=NF90_PUT_ATT(NCID,VARID(13),'add_offset',0.)
 4378         IRET=NF90_PUT_ATT(NCID,VARID(13),'valid_min',0.)
 4379         IRET=NF90_PUT_ATT(NCID,VARID(13),'valid_max',100.)
 4380         IRET=NF90_PUT_ATT(NCID,VARID(13),'_FillValue',NF90_FILL_FLOAT)
 4381         IRET=NF90_PUT_ATT(NCID,VARID(13),'content','TX')
 4382         IRET=NF90_PUT_ATT(NCID,VARID(13),'associates','time station')
 4383                                                                      
 4384 !Dir
 4385         IRET=NF90_DEF_VAR(NCID, 'curdir', NF90_FLOAT, (/ DIMID(TWO),DIMID>
 4386         IF (NCTYPE.EQ.4) IRET=NF90_DEF_VAR_DEFLATE(NCID, VARID(14), 1, 1,>
 4387         IRET=NF90_PUT_ATT(NCID,VARID(14),'long_name','direction from of s>
 4388         IRET=NF90_PUT_ATT(NCID,VARID(14),'standard_name','direction_of_se>
 4389         IRET=NF90_PUT_ATT(NCID,VARID(14),'globwave_name','direction_of_se>
 4390         IRET=NF90_PUT_ATT(NCID,VARID(14),'units','degree')
 4391         IRET=NF90_PUT_ATT(NCID,VARID(14),'scale_factor',1.)
 4392         IRET=NF90_PUT_ATT(NCID,VARID(14),'add_offset',0.)
 4393         IRET=NF90_PUT_ATT(NCID,VARID(14),'valid_min',0.)
 4394         IRET=NF90_PUT_ATT(NCID,VARID(14),'valid_max',360.)
 4395         IRET=NF90_PUT_ATT(NCID,VARID(14),'_FillValue',NF90_FILL_FLOAT)
 4396         IRET=NF90_PUT_ATT(NCID,VARID(14),'content','TX')
 4397         IRET=NF90_PUT_ATT(NCID,VARID(14),'associates','time station')
 4398                                                                      
 4399 !Ust
 4400         IRET=NF90_DEF_VAR(NCID, 'ust', NF90_FLOAT, (/ DIMID(TWO),DIMID(ON>
 
 
                                                         ww3_ounp.F90  page  81
 
 
 4401         IF (NCTYPE.EQ.4) IRET=NF90_DEF_VAR_DEFLATE(NCID, VARID(15), 1, 1,>
 4402         IRET=NF90_PUT_ATT(NCID,VARID(15),'long_name','friction velocity')
 4403         IRET=NF90_PUT_ATT(NCID,VARID(15),'standard_name','friction_veloci>
 4404         IRET=NF90_PUT_ATT(NCID,VARID(15),'globwave_name','friction_veloci>
 4405         IRET=NF90_PUT_ATT(NCID,VARID(15),'units','m s-1')
 4406         IRET=NF90_PUT_ATT(NCID,VARID(15),'scale_factor',1.)
 4407         IRET=NF90_PUT_ATT(NCID,VARID(15),'add_offset',0.)
 4408         IRET=NF90_PUT_ATT(NCID,VARID(15),'valid_min',0.)
 4409         IRET=NF90_PUT_ATT(NCID,VARID(15),'valid_max',100.)
 4410         IRET=NF90_PUT_ATT(NCID,VARID(15),'_FillValue',NF90_FILL_FLOAT)
 4411         IRET=NF90_PUT_ATT(NCID,VARID(15),'content','TX')
 4412         IRET=NF90_PUT_ATT(NCID,VARID(15),'associates','time station')
 4413                                                                      
 4414 !Efth
 4415         IF ( PRESENT(FLSRCE) ) THEN
 4416           IF ( FLSRCE(1) )  THEN
 4417             IRET=NF90_DEF_VAR(NCID,'efth',NF90_FLOAT,(/DIMID(5),DIMID(4),>
 4418             IF (NCTYPE.EQ.4) IRET=NF90_DEF_VAR_DEFLATE(NCID, VARID(16), 1>
 4419             IRET=NF90_PUT_ATT(NCID,VARID(16),'long_name',&
 4420                               'sea surface wave directional variance spec>
 4421             IRET=NF90_PUT_ATT(NCID,VARID(16),'standard_name',&
 4422                               'sea_surface_wave_directional_variance_spec>
 4423             IRET=NF90_PUT_ATT(NCID,VARID(16),'globwave_name','directional>
 4424             IRET=NF90_PUT_ATT(NCID,VARID(16),'units','m2 s rad-1')
 4425             IRET=NF90_PUT_ATT(NCID,VARID(16),'scale_factor',1.)
 4426             IRET=NF90_PUT_ATT(NCID,VARID(16),'add_offset',0.)
 4427             IRET=NF90_PUT_ATT(NCID,VARID(16),'valid_min',0.)
 4428             IRET=NF90_PUT_ATT(NCID,VARID(16),'valid_max',1.E20)
 4429             IRET=NF90_PUT_ATT(NCID,VARID(16),'_FillValue',NF90_FILL_FLOAT)
 4430             IRET=NF90_PUT_ATT(NCID,VARID(16),'content','TXYZ')
 4431             IRET=NF90_PUT_ATT(NCID,VARID(16),'associates','time station f>
 4432           ENDIF
 4433                
 4434 !Swn
 4435           IF ( FLSRCE(2) )  THEN
 4436             IRET=NF90_DEF_VAR(NCID,'sin',NF90_FLOAT,(/DIMID(5),DIMID(4),D>
 4437             IF (NCTYPE.EQ.4) IRET=NF90_DEF_VAR_DEFLATE(NCID, VARID(17), 1>
 4438             IRET=NF90_PUT_ATT(NCID,VARID(17),'long_name','wind input sour>
 4439             IRET=NF90_PUT_ATT(NCID,VARID(17),'standard_name','wind_input_>
 4440             IRET=NF90_PUT_ATT(NCID,VARID(17),'globwave_name','wind_input_>
 4441             IRET=NF90_PUT_ATT(NCID,VARID(17),'units','m2 rad-1')
 4442             IRET=NF90_PUT_ATT(NCID,VARID(17),'scale_factor',1.)
 4443             IRET=NF90_PUT_ATT(NCID,VARID(17),'add_offset',0.)
 4444             IRET=NF90_PUT_ATT(NCID,VARID(17),'valid_min',-1.)
 4445             IRET=NF90_PUT_ATT(NCID,VARID(17),'valid_max',1.)
 4446             IRET=NF90_PUT_ATT(NCID,VARID(17),'_FillValue',NF90_FILL_FLOAT)
 4447             IRET=NF90_PUT_ATT(NCID,VARID(17),'content','TXYZ')
 4448             IRET=NF90_PUT_ATT(NCID,VARID(17),'associates','time station f>
 4449           ENDIF
 4450                
 4451 !Snl
 4452           IF ( FLSRCE(3) )  THEN
 4453             IRET=NF90_DEF_VAR(NCID,'snl',NF90_FLOAT,(/DIMID(5),DIMID(4),D>
 4454             IF (NCTYPE.EQ.4) IRET=NF90_DEF_VAR_DEFLATE(NCID, VARID(18), 1>
 4455             IRET=NF90_PUT_ATT(NCID,VARID(18),'long_name','nonlinear 4 wav>
 
 
                                                         ww3_ounp.F90  page  82
 
 
 4456             IRET=NF90_PUT_ATT(NCID,VARID(18),'standard_name','nonlinear_4>
 4457             IRET=NF90_PUT_ATT(NCID,VARID(18),'globwave_name','nonlinear_4>
 4458             IRET=NF90_PUT_ATT(NCID,VARID(18),'units','m2 rad-1')
 4459             IRET=NF90_PUT_ATT(NCID,VARID(18),'scale_factor',1.)
 4460             IRET=NF90_PUT_ATT(NCID,VARID(18),'add_offset',0.)
 4461             IRET=NF90_PUT_ATT(NCID,VARID(18),'valid_min',-1.)
 4462             IRET=NF90_PUT_ATT(NCID,VARID(18),'valid_max',1.)
 4463             IRET=NF90_PUT_ATT(NCID,VARID(18),'_FillValue',NF90_FILL_FLOAT)
 4464             IRET=NF90_PUT_ATT(NCID,VARID(18),'content','TXYZ')
 4465             IRET=NF90_PUT_ATT(NCID,VARID(18),'associates','time station f>
 4466           ENDIF
 4467                
 4468 !Sds
 4469           IF ( FLSRCE(4) )  THEN
 4470             IRET=NF90_DEF_VAR(NCID,'sds',NF90_FLOAT,(/DIMID(5),DIMID(4),D>
 4471             IF (NCTYPE.EQ.4) IRET=NF90_DEF_VAR_DEFLATE(NCID, VARID(19), 1>
 4472             IRET=NF90_PUT_ATT(NCID,VARID(19),'long_name','wave breaking s>
 4473             IRET=NF90_PUT_ATT(NCID,VARID(19),'standard_name','wave_breaki>
 4474             IRET=NF90_PUT_ATT(NCID,VARID(19),'globwave_name','wave_breaki>
 4475             IRET=NF90_PUT_ATT(NCID,VARID(19),'units','m2 rad-1')
 4476             IRET=NF90_PUT_ATT(NCID,VARID(19),'scale_factor',1.)
 4477             IRET=NF90_PUT_ATT(NCID,VARID(19),'add_offset',0.)
 4478             IRET=NF90_PUT_ATT(NCID,VARID(19),'valid_min',-1.)
 4479             IRET=NF90_PUT_ATT(NCID,VARID(19),'valid_max',1.)
 4480             IRET=NF90_PUT_ATT(NCID,VARID(19),'_FillValue',NF90_FILL_FLOAT)
 4481             IRET=NF90_PUT_ATT(NCID,VARID(19),'content','TXYZ')
 4482             IRET=NF90_PUT_ATT(NCID,VARID(19),'associates','time station f>
 4483           ENDIF
 4484                
 4485 !Sbt
 4486           IF ( FLSRCE(5) )  THEN
 4487             IRET=NF90_DEF_VAR(NCID,'sbt',NF90_FLOAT,(/DIMID(5),DIMID(4),D>
 4488             IF (NCTYPE.EQ.4) IRET=NF90_DEF_VAR_DEFLATE(NCID, VARID(20), 1>
 4489             IRET=NF90_PUT_ATT(NCID,VARID(20),'long_name','depth induced b>
 4490             IRET=NF90_PUT_ATT(NCID,VARID(20),'standard_name','depth_induc>
 4491             IRET=NF90_PUT_ATT(NCID,VARID(20),'globwave_name','depth_induc>
 4492             IRET=NF90_PUT_ATT(NCID,VARID(20),'units','m2 rad-1')
 4493             IRET=NF90_PUT_ATT(NCID,VARID(20),'scale_factor',1.)
 4494             IRET=NF90_PUT_ATT(NCID,VARID(20),'add_offset',0.)
 4495             IRET=NF90_PUT_ATT(NCID,VARID(20),'valid_min',-1.)
 4496             IRET=NF90_PUT_ATT(NCID,VARID(20),'valid_max',1.)
 4497             IRET=NF90_PUT_ATT(NCID,VARID(20),'_FillValue',NF90_FILL_FLOAT)
 4498             IRET=NF90_PUT_ATT(NCID,VARID(20),'content','TXYZ')
 4499             IRET=NF90_PUT_ATT(NCID,VARID(20),'associates','time station f>
 4500           ENDIF
 4501                
 4502 !Sice
 4503           IF ( FLSRCE(6) )  THEN
 4504             IRET=NF90_DEF_VAR(NCID,'sice',NF90_FLOAT,(/DIMID(5),DIMID(4),>
 4505             IF (NCTYPE.EQ.4) IRET=NF90_DEF_VAR_DEFLATE(NCID, VARID(21), 1>
 4506             IRET=NF90_PUT_ATT(NCID,VARID(21),'long_name','wave-ice intera>
 4507             IRET=NF90_PUT_ATT(NCID,VARID(21),'standard_name','wave_ice_in>
 4508             IRET=NF90_PUT_ATT(NCID,VARID(21),'globwave_name','wave_ice_in>
 4509             IRET=NF90_PUT_ATT(NCID,VARID(21),'units','m2 rad-1')
 4510             IRET=NF90_PUT_ATT(NCID,VARID(21),'scale_factor',1.)
 
 
                                                         ww3_ounp.F90  page  83
 
 
 4511             IRET=NF90_PUT_ATT(NCID,VARID(21),'add_offset',0.)
 4512             IRET=NF90_PUT_ATT(NCID,VARID(21),'valid_min',-1.)
 4513             IRET=NF90_PUT_ATT(NCID,VARID(21),'valid_max',1.)
 4514             IRET=NF90_PUT_ATT(NCID,VARID(21),'_FillValue',NF90_FILL_FLOAT)
 4515             IRET=NF90_PUT_ATT(NCID,VARID(21),'content','TXYZ')
 4516             IRET=NF90_PUT_ATT(NCID,VARID(21),'associates','time station f>
 4517           ENDIF
 4518                
 4519 !Stt
 4520           IF ( FLSRCE(7) )  THEN
 4521             IRET=NF90_DEF_VAR(NCID,'stt',NF90_FLOAT,(/DIMID(5),DIMID(4),D>
 4522             IF (NCTYPE.EQ.4) IRET=NF90_DEF_VAR_DEFLATE(NCID, VARID(22), 1>
 4523             IRET=NF90_PUT_ATT(NCID,VARID(22),'long_name','total source te>
 4524             IRET=NF90_PUT_ATT(NCID,VARID(22),'standard_name','total_sourc>
 4525             IRET=NF90_PUT_ATT(NCID,VARID(22),'globwave_name','total_sourc>
 4526             IRET=NF90_PUT_ATT(NCID,VARID(22),'units','m2 rad-1')
 4527             IRET=NF90_PUT_ATT(NCID,VARID(22),'scale_factor',1.)
 4528             IRET=NF90_PUT_ATT(NCID,VARID(22),'add_offset',0.)
 4529             IRET=NF90_PUT_ATT(NCID,VARID(22),'valid_min',-1.)
 4530             IRET=NF90_PUT_ATT(NCID,VARID(22),'valid_max',1.)
 4531             IRET=NF90_PUT_ATT(NCID,VARID(22),'_FillValue',NF90_FILL_FLOAT)
 4532             IRET=NF90_PUT_ATT(NCID,VARID(22),'content','TXYZ')
 4533             IRET=NF90_PUT_ATT(NCID,VARID(22),'associates','time station f>
 4534           ENDIF
 4535         ENDIF
 4536              
 4537 !  Add values in netCDF file
 4538         IRET=NF90_ENDDEF(NCID)
 4539         CALL CHECK_ERR(IRET,68)
 4540         IRET=NF90_PUT_VAR(NCID,VARID(6),FREQ(1:NK))
 4541         CALL CHECK_ERR(IRET,69)
 4542         IRET=NF90_PUT_VAR(NCID,VARID(7),FREQ1(1:NK))
 4543         CALL CHECK_ERR(IRET,70)
 4544         IRET=NF90_PUT_VAR(NCID,VARID(8),FREQ2(1:NK))
 4545         CALL CHECK_ERR(IRET,71)
 4546         IRET=NF90_PUT_VAR(NCID,VARID(9),DIR(1:NTH))
 4547         CALL CHECK_ERR(IRET,72)
 4548 !
 4549       END IF
 4550 !
 4551       RETURN
 4552             
 4553       END SUBROUTINE W3CRNC
 4554                            
 4555 !========================================================================>
 4556                                                                           
 4557       SUBROUTINE CHECK_ERR(IRET,ICODE)
 4558                                       
 4559       USE NETCDF
 4560       USE W3ODATMD, ONLY: NDSE
 4561       USE W3SERVMD, ONLY: EXTCDE
 4562                                 
 4563       IMPLICIT NONE
 4564                    
 4565       INTEGER IRET, ICODE
 
 
                                                         ww3_ounp.F90  page  84
 
 
 4566                          
 4567       IF (IRET .NE. NF90_NOERR) THEN
 4568         WRITE(NDSE,*) ' *** WAVEWATCH III ERROR IN OUNP :'
 4569         WRITE(NDSE,*) ' NETCDF ERROR MESSAGE: '
 4570         WRITE(NDSE,*) NF90_STRERROR(IRET)
 4571         WRITE(NDSE,*) ' ICODE: '
 4572         WRITE(NDSE,*) ICODE
 4573         CALL EXTCDE ( ICODE )
 4574       END IF
 4575       RETURN
 4576             
 4577       END SUBROUTINE CHECK_ERR
 4578                               
 4579 !========================================================================>
 4580                                                                           
 4581                                                                           
 4582 !/
 4583 !/ End of W3OUNP ----------------------------------------------------- /
 4584 !/
 4585       END PROGRAM W3OUNP
 4586                         
 4587                         
 4588                         
 4589                         
------------
ftn -c -module /home/luciano.pezzi/COAWST.V3.7/WW3/model/mod -g -i4 -r4 -Kieee -byteswapio -O3  -O3 -I/home/luciano.pezzi/COAWST.V3.7/WW3/model/mod_MPI -I/home/luciano.pezzi/COAWST.V3.7/Lib/MCT/pgi/include -I/home/luciano.pezzi/COAWST.V3.7//WRF/main -I/home/luciano.pezzi/COAWST.V3.7//WRF/external/esmf_time_f90 -I/home/luciano.pezzi/COAWST.V3.7//WRF/frame -I/home/luciano.pezzi/COAWST.V3.7//WRF/share -I/home/luciano.pezzi/COAWST.V3.7/Lib/MCT/pgi/include -I/home/luciano.pezzi/COAWST.V3.7/Build -I/opt/cray/netcdf-hdf5parallel/4.2.0/pgi/119/include -I/home/luciano.pezzi/COAWST.V3.7/WW3/model/ftn  
------------
------------
------------
