                                                         ww3_grid.F90  page   1
 
 
    1 #include "w3macros.h"
    2 !/ ------------------------------------------------------------------- /
    3       PROGRAM W3GRID
    4 !/
    5 !/                  +-----------------------------------+
    6 !/                  | WAVEWATCH III           NOAA/NCEP |
    7 !/                  |           H. L. Tolman            |
    8 !/                  |           J. H. Alves             |
    9 !/                  |            F. Ardhuin             |
   10 !/                  |                        FORTRAN 90 |
   11 !/                  | Last update :         15-Apr-2020 |
   12 !/                  +-----------------------------------+
   13 !/
   14 !/    14-Jan-1999 : Final FORTRAN 77                    ( version 1.18 )
   15 !/    27-Jan-2000 : Upgrade to FORTRAN 90               ( version 2.00 )
   16 !/                  Add UNFORMATTED bath file option.
   17 !/                  Read options with namelists.
   18 !/    14-Feb-2000 : Adding exact Snl                    ( version 2.01 )
   19 !/    04-May-2000 : Non central source term int.        ( version 2.03 )
   20 !/    24-Jan-2001 : Flat grid option.                   ( version 2.06 )
   21 !/    02-Feb-2001 : Xnl version 3.0                     ( version 2.07 )
   22 !/    09-Feb-2001 : Third propagation scheme added.     ( version 2.08 )
   23 !/    27-Feb-2001 : O0 output switch added.             ( version 2.08 )
   24 !/    16-Mar-2001 : Fourth propagation scheme added.    ( version 2.09 )
   25 !/    29-Mar-2001 : Sub-grid island treatment.          ( version 2.10 )
   26 !/    20-Jul-2001 : Clean up.                           ( version 2.11 )
   27 !/    12-Sep-2001 : Clean up.                           ( version 2.13 )
   28 !/    09-Nov-2001 : Clean up.                           ( version 2.14 )
   29 !/    11-Jan-2002 : Sub-grid ice treatment.             ( version 2.15 )
   30 !/    17-Jan-2002 : DSII bug fix.                       ( version 2.16 )
   31 !/    09-May-2002 : Switch clean up.                    ( version 2.21 )
   32 !/    26-Nov-2002 : Adding first version of NL-3/4.     ( version 3.01 )
   33 !/                  Removed before distribution in 3.12.
   34 !/    26-Dec-2002 : Relaxing CFL time step.             ( version 3.02 )
   35 !/    01-Aug-2003 : Modify GSE correction for moving gr.( version 3.03 )
   36 !/                  Add offset option for first direction.
   37 !/    24-Dec-2004 : Multiple grid version.              ( version 3.06 )
   38 !/    04-May-2005 : Allow active points at edge.        ( version 3.07 )
   39 !/    07-Jul-2005 : Add MAPST2 and map processing.      ( version 3.07 )
   40 !/    09-Nov-2005 : Remove soft boundary options.       ( version 3.08 )
   41 !/    23-Jun-2006 : Adding alternative source terms.    ( version 3.09 )
   42 !/                  Module W3SLN1MD, dummy for others.
   43 !/    28-Jun-2006 : Adding file name preamble.          ( version 3.09 )
   44 !/    28-Oct-2006 : Spectral partitioning.              ( version 3.09 )
   45 !/    09-Jan-2007 : Correct edges of read mask.         ( version 3.10 )
   46 !/    26-Mar-2007 : Add to spectral partitioning.       ( version 3.11 )
   47 !/    14-Apr-2007 : Add Miche style limiter.            ( version 3.11 )
   48 !/                  ( J. H. Alves )
   49 !/    25-Apr-2007 : Battjes-Janssen Sdb added.          ( version 3.11 )
   50 !/                  ( J. H. Alves )
   51 !/    18-Sep-2007 : Adding WAM4 physics option.         ( version 3.13 )
   52 !/                  ( F. Ardhuin )
   53 !/    09-Oct-2007 : Adding bottom scattering SBS1.      ( version 3.13 )
   54 !/                  ( F. Ardhuin )
   55 !/    22-Feb-2008 : Initialize TRNX-Y properly.         ( version 3.13 )
 
 
                                                         ww3_grid.F90  page   2
 
 
   56 !/    29-May-2009 : Preparing distribution version.     ( version 3.14 )
   57 !/    23-Jul-2009 : Modification of ST3 namelist  .     ( version 3.14-SH>
   58 !/    31-Mar-2010 : Addition of shoreline reflection    ( version 3.14-IF>
   59 !/    29-Jun-2010 : Adding Stokes drift profile output  ( version 3.14-IF>
   60 !/    30-Aug-2010 : Adding ST4 option                   ( version 3.14-IF>
   61                                                                           
   62 !/    30-Oct-2009 : Implement run-time grid selection.  ( version 3.14 )
   63 !/                  (W. E. Rogers & T. J. Campbell, NRL)
   64 !/    30-Oct-2009 : Implement curvilinear grid type.    ( version 3.14 )
   65 !/                  (W. E. Rogers & T. J. Campbell, NRL)
   66 !/    29-Oct-2010 : Clean up of unstructured grids      ( version 3.14.4 )
   67 !/                  (A. Roland and F. Ardhuin)
   68 !/    06-Dec-2010 : Change from GLOBAL (logical) to ICLOSE (integer) to
   69 !/                  specify index closure for a grid. Change GLOBAL
   70 !/                  input in ww3_grid.inp to CSTRG.     ( version 3.14 )
   71 !/                  (T. J. Campbell, NRL)
   72 !/    25-Jun-2011 : Adding movable bed friction         ( version 4.01 )
   73 !/    16-Sep-2011 : Clean up.                           ( version 4.05 )
   74 !/    01-Dec-2011 : New namelist for reflection         ( version 4.05 )
   75 !/    01-Mar-2012 : Bug correction for NLPROP in ST2    ( version 4.05 )
   76 !/    12-Jun-2012 : Add /RTD rotated grid option. JGLi  ( version 4.06 )
   77 !/    13-Jul-2012 : Move data structures GMD (SNL3) and nonlinear
   78 !/                  filter (SNLS) from 3.15 (HLT).      ( version 4.07 )
   79 !/    02-Sep-2012 : Clean up of reflection and UG grids ( version 4.08 )
   80 !/    12-Dec-2012 : Adding SMC grid.  JG_Li             ( version 4.08 )
   81 !/    19-Dec-2012 : Add NOSWLL as namelist variable.    ( version 4.OF )
   82 !/    05-Mar-2013 : Adjusted default roughness for rocks( version 4.09 )
   83 !/    01-Jun-2013 : Adding namelist for spectral output ( version 4.10 )
   84 !/    12-Sep-2013 : Adding Arctic part for SMC grid.    ( version 4.11 )
   85 !/    01-Nov-2013 : Changed UG list name to UNST        ( version 4.12 )
   86 !/    11-Nov-2013 : Make SMC and RTD option compatible. ( version 4.13 )
   87 !/    13-Nov-2013 : Moved out reflection to W3UPDTMD    ( version 4.12 )
   88 !/    27-Jul-2013 : Adding free infragravity waves      ( version 4.15 )
   89 !/    02-Dec-2013 : Update of ST4                       ( version 4.16 )
   90 !/    16-Feb-2014 : Adds wind bias correction: WCOR     ( version 5.00 )
   91 !/    10-Mar-2014 : Adding namelist for IC2             ( version 5.01 )
   92 !/    29-May-2014 : Adding namelist for IC3             ( version 5.01 )
   93 !/    15 Oct-2015 : Change SMC grid input files. JGLi   ( version 5.09 )
   94 !/    10-Jan-2017 : Changes for US3D and USSP           ( version 6.01 )
   95 !/    20-Jan-2017 : Bug fix for mask input from file.   ( version 6.02 )
   96 !/    01-Mar-2018 : RTD poles info read from namelist   ( version 6.02 )
   97 !/    14-Mar-2018 : Option to read UNST boundary file   ( version 6.02 )
   98 !/    26-Mar-2018 : Sea-point only Wnd/Cur input. JGLi  ( version 6.02 )
   99 !/    15-May-2018 : Dry sea points over zlim            ( version 6.04 )
  100 !/    06-Jun-2018 : add Implicit grid parameters for unstructured grids
  101 !/                  add DEBUGGRID/DEBUGSTP              ( version 6.04 )
  102 !/    18-Aug-2018 : S_{ice} IC5 (Q. Liu)                ( version 6.06 )
  103 !/    20-Jun-2018 : Update of ST6  (Q. Liu)             ( version 6.06 )
  104 !/    26-Aug-2018 : UOST (Mentaschi et al. 2015, 2018)  ( version 6.06 )
  105 !/    27-Aug-2018 : Add WBT parameter                   ( version 6.06 )
  106 !/    22-Jan-2020 : Update default values for IS2       ( version 7.05 )
  107 !/    20-Feb-2020 : Include Romero's dissipation in ST4 ( version 7.06 )
  108 !/    15-Apr-2020 : Adds optional opt-out for CFL on BC ( version 7.08 )
  109 !/    18-Jun-2020 : Adds 360-day calendar option        ( version 7.08 )
  110 !/    24-Jun-2020 : RTD output b. c. to rotated grid.   ( version 7.11 )
 
 
                                                         ww3_grid.F90  page   3
 
 
  111 !/
  112 !/    Copyright 2009-2013 National Weather Service (NWS),
  113 !/       National Oceanic and Atmospheric Administration.  All rights
  114 !/       reserved.  WAVEWATCH III is a trademark of the NWS.
  115 !/       No unauthorized use without permission.
  116 !/
  117 !  1. Purpose :
  118 !
  119 !     "Grid" preprocessing program, which writes a model definition
  120 !     file containing the model parameter settigs and grid data.
  121 !
  122 !  2. Method :
  123 !
  124 !     Information is read from the file ww3_grid.inp (NDSI), or
  125 !     preset in this program. A model definition file mod_def.ww3 is
  126 !     then produced by W3IOGR. Note that the name of the model
  127 !     definition file is set in W3IOGR.
  128 !
  129 !  3. Parameters :
  130 !
  131 !     Local parameters.
  132 !     ----------------------------------------------------------------
  133 !       NDSI    Int.  Input unit number ("ww3_grid.inp").
  134 !       NDSS    Int.  Scratch file.
  135 !       NDSG    Int.  Grid unit ( may be NDSI )
  136 !       NDSTR   Int.  Sub-grid unit ( may be NDSI or NDSG )
  137 !       VSC     Real  Scale factor.
  138 !       VOF     Real  Add offset.
  139 !       ZLIM    Real  Limiting bottom depth, used to define land.
  140 !       IDLA    Int.  Layout indicator used by INA2R.
  141 !       IDFM    Int.  Id. FORMAT indicator.
  142 !       RFORM   C*16  Id. FORMAT.
  143 !       FNAME   C*60  File name with bottom level data.
  144 !       FROM    C*4   Test string for open, 'UNIT' or 'FILE'
  145 !     ----------------------------------------------------------------
  146 !
  147 !  4. Subroutines used :
  148 !
  149 !      Name      Type  Module   Description
  150 !     ----------------------------------------------------------------
  151 !      W3NMOD    Subr. W3GDATMD Set number of model.
  152 !      W3SETG    Subr.   Id.    Point to selected model.
  153 !      W3DIMS    Subr.   Id.    Set array dims for a spectral grid.
  154 !      W3DIMX    Subr.   Id.    Set array dims for a spatial grid.
  155 !      W3GRMP    Subr. W3GSRUMD Compute bilinear interpolation for point
  156 !      W3NOUT    Subr. W3ODATMD Set number of model for output.
  157 !      W3SETO    Subr.   Id.    Point to selected model for output.
  158 !      W3DMO5    Subr.   Id.    Set array dims for output type 5.
  159 !      ITRACE    Subr. W3SERVMD Subroutine tracing initialization.
  160 !      STRACE    Subr.   Id.    Subroutine tracing.
  161 !      NEXTLN    Subr.   Id.    Get next line from input file
  162 !      EXTCDE    Subr.   Id.    Abort program as graceful as possible.
  163 !      DISTAB    Subr. W3DISPMD Make tables for solution of the
  164 !                               dispersion relation.
  165 !      READNL    Subr. Internal Read namelist.
 
 
                                                         ww3_grid.F90  page   4
 
 
  166 !      INAR2R    Subr. W3ARRYMD Read in an REAL array.
  167 !      PRTBLK    Subr.   Id.    Print plot of array.
  168 !      W3IOGR    Subr. W3IOGRMD Reading/writing model definition file.
  169 !     ----------------------------------------------------------------
  170 !
  171 !  5. Called by :
  172 !
  173 !     None, stand-alone program.
  174 !
  175 !  6. Error messages :
  176 !
  177 !  7. Remarks :
  178 !
  179 !      Physical grid :
  180 !     -----------------
  181 !
  182 !     The physical grid is defined by a grid counter IX defining the
  183 !     discrete longitude and IY defining the discrete latitude as shown
  184 !     below. For mathemathical convenience, these grid axes will
  185 !     generally be denoted as the X and Y axes. Two-dimensional arrays
  186 !     describing parameters on this grid are given as A(IY,IX).
  187 !
  188 !           IY=NY
  189 !             ^  |      |      |      |      |      |            ^ N
  190 !             |  |------|------|------|------|------|----        |
  191 !             |  |  ::  |  25  |  26  |  27  |  28  |          --|--
  192 !                |------|------|------|------|------|----        |
  193 !           IY=3 |  ::  |  ::  |  9   |  10  |  11  |            |
  194 !                |------|------|------|------|------|----
  195 !           IY=2 |  ::  |   1  |   2  |  ::  |   3  |
  196 !                |------|------|------|------|------|----
  197 !           IY=1 |  ::  |  ::  |  ::  |  ::  |  ::  |
  198 !                +------+------+------+------+------+----
  199 !                  IX=1   IX=2   IX=3   IX=4   IX=5   ---> IX=NX
  200 !
  201 !                                        :: is a land point.
  202 !
  203 !     To reduce memory usage of the model, spectra are stored for sea
  204 !     points only, in a one-dimensional grid with the length NSEA. This
  205 !     grid is called the storage grid. The definition of the counter
  206 !     in the storage grid is graphically depicted above. To transfer
  207 !     data between the two grids, the maps MAPFS and MAPSF are
  208 !     determined. MAPFS gives the counter of the storage grid ISEA
  209 !     for every physical grid point (IY,IX), such that
  210 !
  211 !             MAPFS(IY,IX) = ISEA
  212 !
  213 !     ISEA = 0 corresponds to land points. The map MAPSF gives the grid
  214 !     counters (IY,IX) for a given storage point ISEA.
  215 !
  216 !             MAPSF(ISEA,1) = IX
  217 !             MAPSF(ISEA,2) = IY
  218 !             MAPSF(ISEA,3) = IY+(IX-1)*NY  ( filled during reading )
  219 !
  220 !     Finally, a status maps MAPSTA and MAPST2 are determined, where
 
 
                                                         ww3_grid.F90  page   5
 
 
  221 !     the status indicator ISTAT = MAPSTA(IY,IX) determines the type
  222 !     of the grid point.
  223 !
  224 !         ISTAT  Means
  225 !       ---------------------------------------------------
  226 !           0    Point excluded from grid.
  227 !        (-)1    Sea point
  228 !        (-)2    "Active" boundary point (data prescribed)
  229 !
  230 !     For ISTAT=0, the secondary status counter ISTA2 is defined as
  231 !
  232 !         ISTA2  Means
  233 !       ---------------------------------------------------
  234 !           0    Land point.
  235 !           1    Point excluded from grid.
  236 !
  237 !     Negative values of ISTAT identify points that are temporarily
  238 !     taken out of the computation. For these points ISTA2 are
  239 !     defined per bit
  240 !
  241 !         BIT    Means
  242 !       ---------------------------------------------------
  243 !          1     Ice flag (1 = ice coverage)
  244 !          2     Dry flag (1 = dry point with depth 0)
  245 !          3     Inferred land in multi-grid model.
  246 !          4     Masking in multi-grid model.
  247 !          5     land point flag for relocatable grid.
  248 !
  249 !      Thus ISTA2=0 for ISTAT<0 is in error, ISTA2=1 means ice cover,
  250 !      ISTA2=3 means ice on dry point, etc.
  251 !
  252 !      Spectral grid :
  253 !     -----------------
  254 !
  255 !     In the spectral grid (and in physical space in general),
  256 !     the cartesian convention for directions is used, i.e., the
  257 !     direction 0 corresponds to waves propagating in the positive
  258 !     X-direction and 90 degr. corresponds to waves propagating in
  259 !     the positive Y-direction. Similar definitions are used for the
  260 !     internal description of winds and currents. Output can obviously
  261 !     be transformed according to any preferred convention.
  262 !
  263 !          ITH=NTH
  264 !             ^  |      |      |      |      |
  265 !             |  |------|------|------|------|----
  266 !             |  |      |      |      |      |      TH(3) = DTH*2.
  267 !                |------|------|------|------|----
  268 !          ITH=2 |      |      |      |      |      TH(2) = DTH
  269 !                |------|------|------|------|----
  270 !          ITH=1 |      |      |      |      |      TH(1) = 0.
  271 !                +------+------+------+------+----
  272 !                  IK=1   IK=2   IK=3   IK=4   ---> IK=NK
  273 !
  274 !     The spectral grid consists of NK wavenumbers. The first
  275 !     wavenumber IK=1 corresponds to the longest wave. The wavenumber
 
 
                                                         ww3_grid.F90  page   6
 
 
  276 !     grid varies in space, as given by an invariant relative freq.
  277 !     grid and the local depth. The spectral grid furthermore contains
  278 !     NTH directions, equally spaced over a full circle. the first
  279 !     direction corresponds to the direction 0, etc.
  280 !
  281 ! (Begin SMC description)
  282 !
  283 !      Spherical Multiple-Cell (SMC) grid
  284 !     -----------------------------------
  285 !
  286 !     SMC grid is a multi-resolution grid using cells of multiple times
  287 !     of each other.  It is similar to the lat-lon grid using rectangular
  288 !     cells but only cells at sea points are retained.  All land points
  289 !     have been removed from the model.  At high latitudes, cells are
  290 !     merged longitudinally to relax the CFL resctiction on time steps.
  291 !     Near coastlines, cells are divided into quarters in a few steps so
  292 !     that high resolution is achieved to refine coastlines and resolve
  293 !     small islands.  At present, three tiers of quarter cells are used.
  294 !     For locating purpose, a usual x-y counter is setup by the smallest
  295 !     cell size and starting from the south-west corner of the usual
  296 !     rectuangular domain.  Each sea cell is then given a pair of x-y
  297 !     index, plus a pair of increments.  These four index are stored in
  298 !     the cell array IJKCel(NCel, 5), each row holds i, j, di, dj, ndps
  299 !     where ndps is an integer depth in metre.  If precision higher than
  300 !     a metre is required, it may use other unit (cm for instance) with a
  301 !     conversion factor.
  302 !
  303 !     For transport calculation, two face arrays, IJKUFc(NUFc, 7) and
  304 !     IJKVFc(NVFc,8), are also created to store the neighbouring cell
  305 !     sequential numbers and the face location and size.  The 3 arrays
  306 !     are calculated outside the wave model and input from text files.
  307 !
  308 !     Boundary condition is added for SMC grid so that it can be used for
  309 !     regional model as well.  Most of the original boundary settings
  310 !     are reclaimed as long as the boundary condition file is provided
  311 !     by a lat-lon grid WW3 model, which will set the interpolation
  312 !     parameters in the boundary condition file.  The NBI number is
  313 !     reset with an input value because the NX-Y double loop overcount
  314 !     the boundary cells for merged cells in the SMC grid.  ISBPI
  315 !     boundary cell mapping array is fine as MAPFS uses duplicated cell
  316 !     number in any merged cell.  From there, all original NBI loops are
  317 !     reusable.
  318 !
  319 !     The whole Arctic can be included in the SMC grid if another option
  320 !     ARC is activated along with the SMC option.  ARC option appends
  321 !     the polar Arctic part above 86N to the existing SMC grid and uses
  322 !     a map-east reference direction for this extra polar region.
  323 !     Because the map-east direction changes with latitude and longitude
  324 !     the wave spectra defined to the map-east direction could not be
  325 !     mixed up with the conventional spectra defined to the local east
  326 !     direction.  A rotation sub is provided for convertion from one to
  327 !     another.  Propagation part will be calculated together, including
  328 !     the boundary cells.  The boundary cells are then updated by
  329 !     assigning the corresponding inner cells to them after conversion.
  330 !     Boundary cells are duplicated northmost 4 rows of the global part
 
 
                                                         ww3_grid.F90  page   7
 
 
  331 !     and they can be excluded for source term and output if required.
  332 !     For convenience, Arctic cellls are all base level cells and are
  333 !     appended to the end of the global cells.  If refined cells were
  334 !     used in the Arctic part, it would not be kept all together, making
  335 !     the sub-loops much more complicated. If refined resolution cells
  336 !     are required for a Arctic regional model, users may consider use
  337 !     the rotated SMC grid options (RTD and SMC).
  338 !
  339 !     For more information about the SMC grid, please refer to
  340 !     Li, J.G. (2012) Propagation of Ocean Surface Waves on a Spherical
  341 !     Multiple-Cell Grid.  J. Comput. Phys., 231, 8262-8277.  online at
  342 !     http://dx.doi.org/10.1016/j.jcp.2012.08.007
  343 !
  344 ! (End SMC description)
  345 !
  346 !     ICEWIND is the scale factor for reduction of wind input by ice
  347 !     concentration. Value specified corresponds to the fractional
  348 !     input for 100% ice concentration. Default is 1.0, meaning that
  349 !     100% ice concentration result in zero wind input.
  350 !     Sin_in_ice=Sin_in_open_water * (1-ICE*ICEWIND)
  351                                                     
  352 !     -----------------------------------------------------------------*
  353 !  8. Structure :
  354 !
  355 !     ----------------------------------------------------------------
  356 !        1.   Set up grid storage structure.
  357 !                               ( W3NMOD , W3NOUT , W3SETG , W3SETO )
  358 !        2.a  I-O setup.
  359 !          b  Print heading(s).
  360 !        3.   Prepare int. table for dispersion relation   ( DISTAB )
  361 !        4.   Read and process input file up to spectrum.
  362 !          a  Get comment character
  363 !          b  Name of grid
  364 !          c  Define spectrum                              ( W3DIMS )
  365 !        5.   Set-up discrete spectrum.
  366 !          a  Directions.
  367 !          b  Frequency for spectrum.
  368 !        6.   Read and process input file up to numerical parameters
  369 !          a  Set model flags and time steps
  370 !          b  Set / select source term package
  371 !          c  Pre-process namelists.
  372 !          d  Wind input source term.
  373 !          e  Nonlinear interactions.
  374 !          f  Whitecapping term.
  375 !          g  Bottom friction source term.
  376 !          h  Depth indiced breaking source term.
  377 !          i  Triad interaction source term.
  378 !          j  Bottom scattering source term.
  379 !          k  Undefined source term.
  380 !          l  Set / select propagaton scheme
  381 !          m  Parameters for propagation scheme.
  382 !          n  Set misc. parameters (ice, seeding, ...)
  383 !          o  End of namelist processing
  384 !          p  Set various other variables
  385 !        7.   Read and prepare grid.
 
 
                                                         ww3_grid.F90  page   8
 
 
  386 !          a  Layout of grid
  387 !          b  Storage of grid of grid
  388 !          c  Read bottom depths
  389 !          d  Set up temp map
  390 !          e  Subgrid information
  391 !            1 Info from input file
  392 !            2 Open file and check if necessary
  393 !            3 Read the data
  394 !            4 Limit
  395 !        8    Finalize status maps
  396 !          a  Determine where to get the data
  397 !             Get data in parts from input file
  398 !             ----------------------------------------------------
  399 !          b  Read and update TMPSTA with bound. and excl. points.
  400 !          c  Finalize excluded points
  401 !             ----------------------------------------------------
  402 !             Read data from file
  403 !             ----------------------------------------------------
  404 !          d  Read data from file
  405 !             ----------------------------------------------------
  406 !          e  Get NSEA and other counters
  407 !          f  Set up all maps                              ( W3DIMX )
  408 !        9.   Prepare output boundary points.
  409 !          a  Read
  410 !          b  Update
  411 !       10.   Write model definition file.                 ( W3IOGR )
  412 !     ----------------------------------------------------------------
  413 !
  414 !  9. Switches :
  415 !
  416 !     !/FLX1  Stresses according to Wu (1980).
  417 !     !/FLX2  Stresses according to T&C (1996).
  418 !     !/FLX3  Stresses according to T&C (1996) with cap on Cd.
  419 !     !/FLX4  Stresses according to Hwang (2011).
  420 !
  421 !     !/LN0   No linear input source term.
  422 !     !/SEED  'Seeding' of lowest frequency for sufficiently strong
  423 !             winds. Proxi for linear input.
  424 !     !/LN1   Cavaleri and Melanotte-Rizzoli with Tolman filter.
  425 !     !/LNX   Open slot.
  426 !
  427 !     !/ST0   No source terms included (input/dissipation)
  428 !     !/ST1   WAM-3 physics package.
  429 !     !/ST2   Tolman and Chalikov (1996) physics package.
  430 !     !/ST3   WAM 4+ source terms from P.A.E.M. Janssen and J-R. Bidlot
  431 !     !/ST4   Input and dissipation using saturation following Ardhuin et>
  432 !             Filipot & Ardhuin (2010) or Romero (2019)
  433 !     !/ST6   BYDRZ source term package featuring Donelan et al.
  434 !             (2006) input and Babanin et al. (2001,2010) dissipation.
  435 !     !/STX   Open slot.
  436 !
  437 !     !/NL0   No nonlinear interactions.
  438 !     !/NL1   Discrete interaction approximation (DIA).
  439 !     !/NL2   Exact interactions (WRT).
  440 !     !/NL3   Generalized Multiple DIA (GMD).
 
 
                                                         ww3_grid.F90  page   9
 
 
  441 !     !/NL4   Two Scale Approximation
  442 !     !/NLX   Open slot.
  443 !     !/NLS   Snl based HF filter.
  444 !
  445 !     !/BT0   No bottom friction included.
  446 !     !/BT1   JONSWAP bottom friction package.
  447 !     !/BT4   SHOWEX bottom friction using movable bed roughness
  448 !                  (Tolman 1994, Ardhuin & al. 2003)
  449 !     !/BTX   Open slot.
  450 !
  451 !     !/IC1   Sink term for interaction with ice (uniform k_i)
  452 !     !/IC2   Sink term for under-ice boundary layer friction
  453 !                  (Liu et al.    1991: JGR 96 (C3), 4605-4621)
  454 !                  (Liu and Mollo 1988: JPO 18       1720-1712)
  455 !     !/IC3   Sink term for interaction with ice (Wang and Shen method)
  456 !                  (Wang and Shen JGR 2010)
  457 !     !/IC4   Sink term for empirical, frequency-dependent attenuation
  458 !                   in ice (Wadhams et al. 1988: JGR 93 (C6) 6799-6818)
  459 !     !/IC5   Sink term for interaction with ice (Mosig et al. method)
  460 !                  (Mosig et al. 2015: JGR)
  461 !
  462 !     !/UOST  Unresolved Obstacles Source Term (UOST), Mentaschi et al. 2>
  463 !
  464 !     !/DB0   No depth-induced breaking included.
  465 !     !/DB1   Battjes-Janssen depth-limited breaking.
  466 !     !/DBX   Open slot.
  467 !     !/MLIM  Mich-style limiter.
  468 !
  469 !     !/TR0   No triad interactions included.
  470 !     !/TRX   Open slot.
  471 !
  472 !     !/BS0   No bottom scattering included.
  473 !     !/BS1   Routines from F. Ardhuin.
  474 !     !/BSX   Open slot.
  475 !
  476 !     !/XX0   No unclasified source term included.
  477 !     !/XXX   Open slot.
  478 !
  479 !     !/PR1   First order propagation scheme.
  480 !     !/PR2   QUICKEST scheme with ULTIMATE limite and diffusion
  481 !             correction for swell dispersion.
  482 !     !/PR3   Averaging ULTIMATE QUICKEST scheme.
  483 !
  484 !     !/RTD   Rotated regular lat-lon grid. Special case is standard Pola>
  485 !     !/SMC   UNO2 scheme on Spherical Multiple-Cell grid.
  486 !     !/ARC   Append the Arctic part to the SMC grid.
  487 !
  488 !     !/MGG   GSE correction for moving grid.
  489 !
  490 !     !/S     Enable subroutine tracing.
  491 !     !/T     Enable test output.
  492 !     !/T0    Enable test output tables for boundary output.
  493 !
  494 !     !/O0    Print equivalent namelist setting to std out.
  495 !     !/O1    Print tables with boundary points as part of output.
 
 
                                                         ww3_grid.F90  page  10
 
 
  496 !     !/O2    Print MAPSTA as part of output.
  497 !     !/O2a   Print land-sea mask in mask.ww3.
  498 !     !/O2b   Print obstruction data.
  499 !     !/O2c   Print extended status map.
  500 !
  501 ! 10. Source code :
  502 !
  503 !/ ------------------------------------------------------------------- /
  504       USE CONSTANTS
  505 !/
  506       USE W3TRIAMD
  507       USE W3GSRUMD, ONLY: W3GRMP
  508       USE W3ODATMD, ONLY: W3NOUT, W3SETO, W3DMO5
  509       USE W3IOGRMD, ONLY: W3IOGR
  510       USE W3SERVMD, ONLY: ITRACE, NEXTLN, EXTCDE
  511       USE W3ARRYMD, ONLY: INA2R, INA2I
  512       USE W3DISPMD, ONLY: DISTAB
  513 !/
  514       USE W3GDATMD
  515       USE W3ODATMD, ONLY: NDSE, NDST, NDSO
  516       USE W3ODATMD, ONLY: NBI, NBI2, NFBPO, NBO, NBO2, FLBPI, FLBPO,  &
  517                           IPBPO, ISBPO, XBPO, YBPO, RDBPO, FNMPRE,    &
  518                           IHMAX, HSPMIN, WSMULT, WSCUT, FLCOMB,       &
  519                           NOSWLL, PTMETH, PTFCUT
  520       USE W3TIMEMD, ONLY: CALTYPE
  521       USE W3NMLGRIDMD
  522 !
  523       IMPLICIT NONE
  524 !/
  525 !/ ------------------------------------------------------------------- /
  526 !/ Local parameters
  527 !/
  528       TYPE(NML_SPECTRUM_T)     :: NML_SPECTRUM
  529       TYPE(NML_RUN_T)          :: NML_RUN
  530       TYPE(NML_TIMESTEPS_T)    :: NML_TIMESTEPS
  531       TYPE(NML_GRID_T)         :: NML_GRID
  532       TYPE(NML_RECT_T)         :: NML_RECT
  533       TYPE(NML_CURV_T)         :: NML_CURV
  534       TYPE(NML_UNST_T)         :: NML_UNST
  535       TYPE(NML_SMC_T)          :: NML_SMC
  536       TYPE(NML_DEPTH_T)        :: NML_DEPTH
  537       TYPE(NML_MASK_T)         :: NML_MASK
  538       TYPE(NML_OBST_T)         :: NML_OBST
  539       TYPE(NML_SLOPE_T)        :: NML_SLOPE
  540       TYPE(NML_SED_T)          :: NML_SED
  541       TYPE(NML_INBND_COUNT_T)  :: NML_INBND_COUNT
  542       TYPE(NML_INBND_POINT_T), ALLOCATABLE  :: NML_INBND_POINT(:)
  543       TYPE(NML_EXCL_COUNT_T)   :: NML_EXCL_COUNT
  544       TYPE(NML_EXCL_POINT_T), ALLOCATABLE   :: NML_EXCL_POINT(:)
  545       TYPE(NML_EXCL_BODY_T), ALLOCATABLE    :: NML_EXCL_BODY(:)
  546       TYPE(NML_OUTBND_COUNT_T) :: NML_OUTBND_COUNT
  547       TYPE(NML_OUTBND_LINE_T), ALLOCATABLE  :: NML_OUTBND_LINE(:)
  548 !
  549       INTEGER, PARAMETER      :: NFL = 6
  550       INTEGER                 :: NDSI, NDSI2, NDSS, NDSM, NDSG, NDSTR,&
 
 
                                                         ww3_grid.F90  page  11
 
 
  551                                  IERR, NDSTRC, NTRACE, ITH, IK, ITH0, &
  552                                  ISP, IYN(NFL), NRLIN, NRSRCE, NRNL,  &
  553                                  NRBT, NRDB, NRTR, NRBS, NRXX, NRPROP,&
  554                                  IDLA, IDFM, IX0, IXN, IX, IY, ISEA,  &
  555                                  IDX, IXO, IDY, IYO, IBA, NBA, ILOOP, &
  556                                  IFL, NBOTOT, NPO, IP, IX1, IX2, IY1, &
  557                                  IY2, J, JJ, IXR(4), IYR(4), ISEAI(4),&
  558                                  IST, NKI, NTHI, NRIC, NRIS, I, IDFT, &
  559                                  NSTAT, NBT, NLAND, NOSW, NMAPB, IMAPB
  560       INTEGER             :: IBI, IP0, IPN, IPH, IPI
  561       INTEGER                 :: NCOL =  78
  562 !
  563       INTEGER                 :: NMAP, IMAP
  564 !
  565       INTEGER, ALLOCATABLE    :: TMPSTA(:,:), TMPMAP(:,:), READMP(:,:)
  566 !
  567       REAL                    :: RXFR, RFR1, SIGMA, SXFR, FACHF,      &
  568                                  VSC, VSC0, VOF,                      &
  569                                  ZLIM, X, Y, XP,  XO0, YO0, DXO, DYO, &
  570                                  XO, YO, RD(4), RDTOT,                &
  571                                  FACTOR, RTH0, FMICHE, RWNDC,         &
  572                                  WCOR1, WCOR2
  573 !
  574       CHARACTER(LEN=4)        :: GSTRG, CSTRG
  575 !
  576 ! Variables used to allow spectral output on full grid
  577 !
  578       INTEGER                 :: P2SF,I1P2SF,I2P2SF
  579       INTEGER                 :: E3D,I1E3D,I2E3D
  580       INTEGER                 :: US3D,I1US3D,I2US3D,                  &
  581                                  USSP, IUSSP,                         &
  582                                  TH1MF, I1TH1M, I2TH1M,               &
  583                                  STH1MF, I1STH1M, I2STH1M,            &
  584                                  TH2MF, I1TH2M, I2TH2M,               &
  585                                  STH2MF, I1STH2M, I2STH2M
  586       ! STK_WN are the decays for Stokes drift partitions
  587       REAL                    :: STK_WN(25)
  588                                            
  589 !
  590       REAL                    :: CLIN, RFPM, RFHF
  591       REAL                    :: NLPROP
  592 !
  593       REAL, ALLOCATABLE       :: XGRDIN(:,:), YGRDIN(:,:)
  594       REAL, ALLOCATABLE       :: ZBIN(:,:), OBSX(:,:), OBSY(:,:)
  595       REAL, ALLOCATABLE       :: REFD(:,:), REFD2(:,:), REFS(:,:)
  596 !
  597       LOGICAL                 :: FLLIN, FLINDS, FLNL, FLBT, FLDB,     &
  598                                  FLTR, FLBS, FLXX, FLPROP, FLREF,     &
  599                                  FIRST, CONNCT, FLNEW, INGRID,FLIC,   &
  600                                  FLIS, FLGNML
  601       LOGICAL                 :: FLTC96 = .FALSE.
  602       LOGICAL                 :: FLNMLO = .FALSE.
  603       LOGICAL                 :: FLSTB2 = .FALSE.
  604       LOGICAL                 :: FLST4  = .FALSE.
  605       LOGICAL                 :: FLST6  = .FALSE.
 
 
                                                         ww3_grid.F90  page  12
 
 
  606                                                  
  607 !!Li  Add a logical variable to shelter regular grid lines from SMC grid.
  608       LOGICAL                 :: RGLGRD = .TRUE.
  609 !!Li
  610       REAL                    :: FACBERG, REFSLOPE
  611 !
  612       REAL                    :: REFCOAST, REFFREQ, REFMAP,     &
  613                                  REFSUBGRID, REFRMAX, REFMAPD,  &
  614                                  REFICEBERG, REFCOSP_STRAIGHT,  &
  615                                  REFFREQPOW, REFUNSTSOURCE
  616 !
  617   LOGICAL                 :: IGSWELLMAX, IGBCOVERWRITE
  618   INTEGER                 :: IGMETHOD, IGADDOUTP, IGSOURCE,      &
  619                              IGSOURCEATBP, IGSTERMS
  620   REAL                    :: IGMAXFREQ, IGMINDEP, IGMAXDEP,      &
  621                              IGKDMIN, IGFIXEDDEPTH, IGEMPIRICAL
  622 !
  623  
  624  
  625 !
  626  
  627       CHARACTER               :: COMSTR*1, PNAME*30, RFORM*16,        &
  628                                  FROM*4, FNAME*60, TNAME*60, LINE*80, &
  629                                  STATUS*20,FNAME2*60, PNAME2*40
  630       CHARACTER(LEN=6)        :: YESXNO(2)
  631                                           
  632                                           
  633 !/ ------------------------------------------------------------------- /
  634 !/ Namelists
  635 !/
  636       INTEGER                 :: FLAGTR, IHM
  637       REAL                    :: CFLTM, CICE0, CICEN, PMOVE, XFILT,    &
  638                                  LICE, XSEED, XR, HSPM, WSM, WSC, STDX,&
  639                                  STDY, STDT, ICEHMIN, ICEHFAC, ICEHINIT, &
  640                                  ICESLN, ICEWIND, ICESNL, ICESDS,        &
  641                                  ICEHDISP, ICEFDISP, ICEDDISP, BTBET
  642 !
  643       REAL(8)                 :: GSHIFT ! see notes in WMGHGH
  644       LOGICAL                 :: FLC, ICEDISP, TRCKCMPR
  645       INTEGER                 :: PTM   ! Partitioning method
  646       REAL                    :: PTFC  ! Part. cut off freq (for method 5)
  647       REAL                    :: AIRCMIN, AIRGB
  648       CHARACTER               :: PMNAME*45, PMNAM2*45  ! Part. method des>
  649 !
  650       INTEGER                 :: SWELLFPAR, SDSISO, SDSBRFDF
  651       REAL 		   :: SDSBCHOICE
  652       REAL                    :: ZWND, ALPHA0, Z0MAX, BETAMAX, SINTHP,&
  653                                  ZALP, Z0RAT, TAUWSHELTER, SWELLF,    &
  654                                  SWELLF2,SWELLF3,SWELLF4, SWELLF5,    &
  655                                  SWELLF6, SWELLF7, FXPM3, FXFM3,      &
  656                                  WNMEANPTAIL, WNMEANP, STXFTF, STXFTFTAIL,
  657                                  STXFTWN, SINBR, FXFMAGE,             &
  658                                  SDSC2, SDSCUM, SDSC4, SDSC5, SDSC6, WHIT>
  659                                  SDSSTRAIN, SDSSTRAINA, SDSSTRAIN2,   &
  660                                  SDSBR, SDSP, SDSBT, SDS4A, SDKOF,    &
 
 
                                                         ww3_grid.F90  page  13
 
 
  661                                  SDSCOS, SDSDTH, SDSBCK, SDSABK,      &
  662                                  SDSPBK, SDSBINT, SDSHCK,             &
  663                                  SDSBRF1,                             &
  664                                  SDSBM0, SDSBM1, SDSBM2, SDSBM3,      &
  665                                  SDSBM4, SDSFACMTF, SDSCUMP,  SDSNUW, &
  666                                  SDSL, SDSMWD, SDSMWPOW, SPMSS, SDSNMTF
  667 !
  668       REAL                    :: LAMBDA, KDCONV, KDMIN,               &
  669                                  SNLCS1, SNLCS2, SNLCS3
  670 !
  671       REAL                    :: WDTHCG, WDTHTH
  672            LOGICAL :: JGS_TERMINATE_MAXITER = .TRUE.
  673            LOGICAL :: JGS_TERMINATE_DIFFERENCE = .TRUE.
  674            LOGICAL :: JGS_TERMINATE_NORM = .TRUE.
  675            LOGICAL :: JGS_LIMITER = .FALSE.
  676            LOGICAL :: JGS_BLOCK_GAUSS_SEIDEL = .TRUE.
  677            LOGICAL :: JGS_USE_JACOBI = .TRUE.
  678            LOGICAL :: JGS_SOURCE_NONLINEAR = .FALSE.
  679            LOGICAL :: UGOBCAUTO = .FALSE.
  680            LOGICAL :: UGBCCFL   = .FALSE.
  681            LOGICAL :: EXPFSN    = .TRUE.
  682            LOGICAL :: EXPFSPSI  = .FALSE.
  683            LOGICAL :: EXPFSFCT  = .FALSE.
  684            LOGICAL :: IMPFSN    = .FALSE.
  685            LOGICAL :: EXPTOTAL  = .FALSE.
  686            LOGICAL :: IMPTOTAL  = .FALSE.
  687            LOGICAL :: IMPREFRACTION = .FALSE.
  688            LOGICAL :: IMPFREQSHIFT = .FALSE.
  689            LOGICAL :: IMPSOURCE = .FALSE.
  690            LOGICAL :: SETUP_APPLY_WLV = .FALSE.
  691            INTEGER :: JGS_MAXITER=100
  692            INTEGER :: nbSel
  693            INTEGER :: UNSTSCHEMES(4)
  694            INTEGER :: UNSTSCHEME
  695            INTEGER :: JGS_NLEVEL = 0
  696            REAL*8  :: JGS_PMIN = 0.
  697            REAL*8  :: JGS_DIFF_THR = 1.E-10
  698            REAL*8  :: JGS_NORM_THR = 1.E-20
  699            REAL*8  :: SOLVERTHR_SETUP = 1.E-20
  700            REAL*8  :: CRIT_DEP_SETUP = 0.
  701 !
  702            CHARACTER               :: UGOBCFILE*60
  703            REAL                    :: UGOBCDEPTH
  704            LOGICAL                 :: UGOBCOK
  705                                              
  706 !
  707       NAMELIST /SIG1/  IGMETHOD, IGADDOUTP, IGSOURCE, IGBCOVERWRITE,   &
  708                       IGMAXFREQ, IGSTERMS, IGSWELLMAX,                &
  709                       IGSOURCEATBP, IGKDMIN, IGFIXEDDEPTH, IGEMPIRICAL
  710       NAMELIST /SLN1/ CLIN, RFPM, RFHF
  711       NAMELIST /SIN4/ ZWND, ALPHA0, Z0MAX, BETAMAX, SINTHP, ZALP, &
  712                       TAUWSHELTER, SWELLFPAR, SWELLF,                 &
  713                       SWELLF2, SWELLF3, SWELLF4, SWELLF5, SWELLF6,    &
  714                       SWELLF7, Z0RAT, SINBR
  715       NAMELIST /SNL1/ LAMBDA, NLPROP, KDCONV, KDMIN,                  &
 
 
                                                         ww3_grid.F90  page  14
 
 
  716                       SNLCS1, SNLCS2, SNLCS3
  717       NAMELIST /SDS4/ SDSBCHOICE, WNMEANP, WNMEANPTAIL, FXPM3, FXFM3, &
  718                       FXFMAGE, SDSC2, SDSCUM, SDSSTRAIN, SDSSTRAINA,  &
  719                       SDSSTRAIN2, SDSC4, SDSFACMTF, SDSNMTF,SDSCUMP,  &
  720                       SDSC5, SDSC6, SDSBR, SDSBT, SDSP, SDSISO,       &
  721                       SDSBCK, SDSABK, SDSPBK, SDSBINT, SDSHCK,        &
  722                       SDSDTH, SDSCOS, SDSBRF1, SDSBRFDF,  SDSNUW,     &
  723                       SDSBM0, SDSBM1, SDSBM2, SDSBM3, SDSBM4,         &
  724                       WHITECAPWIDTH, WHITECAPDUR, SDSMWD, SDSMWPOW, SDKOF
  725                                                                          
  726 !
  727       NAMELIST /PRO3/ CFLTM, WDTHCG, WDTHTH
  728            NAMELIST /UNST/ UGOBCAUTO, UGOBCDEPTH, UGOBCFILE,          &
  729                            UGBCCFL, EXPFSN, EXPFSPSI, EXPFSFCT,       &
  730                            IMPFSN, IMPTOTAL, EXPTOTAL,                &
  731                            IMPREFRACTION, IMPFREQSHIFT,               &
  732                            IMPSOURCE,                                 &
  733                            JGS_TERMINATE_MAXITER,                     &
  734                            JGS_TERMINATE_DIFFERENCE,                  &
  735                            JGS_TERMINATE_NORM,                        &
  736                            JGS_LIMITER,                               &
  737                            JGS_USE_JACOBI,                            &
  738                            JGS_BLOCK_GAUSS_SEIDEL,                    &
  739                            JGS_MAXITER,                               &
  740                            JGS_PMIN,                                  &
  741                            JGS_DIFF_THR,                              &
  742                            JGS_NORM_THR,                              &
  743                            JGS_NLEVEL,                                &
  744                            JGS_SOURCE_NONLINEAR,                      &
  745                            SETUP_APPLY_WLV, SOLVERTHR_SETUP,          &
  746                            CRIT_DEP_SETUP
  747            NAMELIST /MISC/ CICE0, CICEN, LICE, XSEED, FLAGTR, XP, XR, &
  748                       XFILT, PMOVE, IHM, HSPM, WSM, WSC, FLC, FMICHE, &
  749                       RWNDC, FACBERG, NOSW, GSHIFT, WCOR1, WCOR2,     &
  750                       STDX, STDY, STDT, ICEHMIN, ICEHINIT, ICEDISP,   &
  751                       ICESLN, ICEWIND, ICESNL, ICESDS, ICEHFAC,       &
  752                       ICEHDISP, ICEDDISP, ICEFDISP, CALTYPE,          &
  753                       TRCKCMPR, PTM, PTFC, BTBET
  754            NAMELIST /OUTS/ P2SF, I1P2SF, I2P2SF,                      &
  755                              US3D, I1US3D, I2US3D,                    &
  756                              USSP, IUSSP, STK_WN,                     &
  757                              E3D, I1E3D, I2E3D,                       &
  758                              TH1MF, I1TH1M, I2TH1M,                   &
  759                              STH1MF, I1STH1M, I2STH1M,                &
  760                              TH2MF, I1TH2M, I2TH2M,                   &
  761                              STH2MF, I1STH2M, I2STH2M
  762            NAMELIST /REF1/ REFCOAST, REFFREQ, REFMAP,  REFMAPD,       &
  763                           REFSUBGRID, REFICEBERG,                     &
  764                           REFCOSP_STRAIGHT, REFSLOPE, REFRMAX,        &
  765                           REFFREQPOW, REFUNSTSOURCE
  766 !/
  767 !/
  768 !/ ------------------------------------------------------------------- /
  769 !/
  770       DATA YESXNO / 'YES/--' , '---/NO' /
 
 
                                                         ww3_grid.F90  page  15
 
 
  771       FLNMLO = .TRUE.
  772 !
  773 !--- - - - - - - - - - - - - - - - - - - - - - - - - - - - - - - - - -
  774 ! 1.  Set up grid storage structure
  775 !
  776       CALL W3NMOD ( 1, 6, 6 )
  777       CALL W3SETG ( 1, 6, 6 )
  778       CALL W3NOUT (    6, 6 )
  779       CALL W3SETO ( 1, 6, 6 )
  780 !
  781 !--- - - - - - - - - - - - - - - - - - - - - - - - - - - - - - - - - -
  782 ! 2.  IO set-up.
  783 !
  784       NDSI   = 10
  785       NDSS   = 99
  786       NDSM   = 20
  787 !
  788       INQUIRE(FILE=TRIM(FNMPRE)//"ww3_grid.nml", EXIST=FLGNML)
  789       IF (FLGNML) THEN
  790          ! Read namelist
  791          CALL W3NMLGRID (NDSI, TRIM(FNMPRE)//'ww3_grid.nml', NML_SPECTRUM>
  792                          NML_TIMESTEPS, NML_GRID, NML_RECT, NML_CURV,   &
  793                          NML_UNST, NML_SMC, NML_DEPTH, NML_MASK,        &
  794                          NML_OBST, NML_SLOPE, NML_SED, NML_INBND_COUNT, &
  795                          NML_INBND_POINT, NML_EXCL_COUNT,               &
  796                          NML_EXCL_POINT, NML_EXCL_BODY,                 &
  797                          NML_OUTBND_COUNT, NML_OUTBND_LINE, IERR)
  798       ELSE
  799         OPEN (NDSI,FILE=TRIM(FNMPRE)//'ww3_grid.inp',STATUS='OLD',       >
  800               ERR=2000,IOSTAT=IERR)
  801       END IF
  802 !
  803       NDSTRC =  6
  804       NTRACE =  10
  805       CALL ITRACE ( NDSTRC, NTRACE )
  806 !
  807       WRITE (NDSO,900)
  808 !
  809 !--- - - - - - - - - - - - - - - - - - - - - - - - - - - - - - - - - -
  810 ! 3.a Interpolation table for dispersion relation.
  811 !
  812       CALL DISTAB
  813 !
  814 !--- - - - - - - - - - - - - - - - - - - - - - - - - - - - - - - - - -
  815 ! 3.b Table for friction factors
  816 !
  817       CALL TABU_FW
  818 !
  819 !--- - - - - - - - - - - - - - - - - - - - - - - - - - - - - - - - - -
  820 ! 4   Read and process input file up to spectrum
  821 !
  822  
  823       IF (FLGNML) THEN
  824          ! grid name
  825          GNAME=TRIM(NML_GRID%NAME)
 
 
                                                         ww3_grid.F90  page  16
 
 
  826          WRITE (NDSO,902) GNAME
  827                                
  828          ! spectrum parameters
  829          RXFR=NML_SPECTRUM%XFR
  830          RFR1=NML_SPECTRUM%FREQ1
  831          NKI=NML_SPECTRUM%NK
  832          NTHI=NML_SPECTRUM%NTH
  833          RTH0=NML_SPECTRUM%THOFF
  834                                 
  835       ELSE
  836           
  837         READ (NDSI,'(A)',END=2001,ERR=2002,IOSTAT=IERR) COMSTR
  838         IF (COMSTR.EQ.' ') COMSTR = '$'
  839         WRITE (NDSO,901) COMSTR
  840         CALL NEXTLN ( COMSTR , NDSI , NDSE )
  841 !
  842         CALL NEXTLN ( COMSTR , NDSI , NDSE )
  843         READ (NDSI,*,END=2001,ERR=2002) GNAME
  844         WRITE (NDSO,902) GNAME
  845 !
  846         CALL NEXTLN ( COMSTR , NDSI , NDSE )
  847         READ (NDSI,*,END=2001,ERR=2002) RXFR, RFR1, NKI, NTHI, RTH0
  848       END IF
  849             
  850             
  851       NK     = NKI
  852       NK2    = NKI + 2
  853       NTH    = NTHI
  854       NSPEC  = NK * NTH
  855       XFR    = MAX ( RXFR , 1.00001 )
  856       FR1    = MAX ( RFR1 , 1.E-6 )
  857       DTH    = TPI / REAL(NTH)
  858       RTH0   = MAX ( -0.5 , MIN ( 0.5 , RTH0 ) )
  859       WRITE (NDSO,903) NTH, DTH*RADE
  860       WRITE (NDSO,904) 360./REAL(NTH)*RTH0
  861       WRITE (NDSO,905) NK, FR1, FR1*XFR**(NK-1), XFR
  862 !
  863       CALL W3DIMS ( 1, NK, NTH, NDSE, NDST )
  864 !
  865 !--- - - - - - - - - - - - - - - - - - - - - - - - - - - - - - - - - -
  866 ! 5.  Initialize spectral parameters.
  867 ! 5.a Directions :
  868 !
  869       DO ITH=1, NTH
  870         TH  (ITH) = DTH * ( RTH0 + REAL(ITH-1) )
  871         ESIN(ITH) = SIN ( TH(ITH) )
  872         ECOS(ITH) = COS ( TH(ITH) )
  873         IF ( ABS(ESIN(ITH)) .LT. 1.E-5 ) THEN
  874           ESIN(ITH) = 0.
  875           IF ( ECOS(ITH) .GT. 0.5 ) THEN
  876             ECOS(ITH) =  1.
  877           ELSE
  878             ECOS(ITH) = -1.
  879             END IF
  880           END IF
 
 
                                                         ww3_grid.F90  page  17
 
 
  881         IF ( ABS(ECOS(ITH)) .LT. 1.E-5 ) THEN
  882           ECOS(ITH) = 0.
  883           IF ( ESIN(ITH) .GT. 0.5 ) THEN
  884             ESIN(ITH) =  1.
  885           ELSE
  886             ESIN(ITH) = -1.
  887             END IF
  888           END IF
  889         ES2 (ITH) = ESIN(ITH)**2
  890         EC2 (ITH) = ECOS(ITH)**2
  891         ESC (ITH) = ESIN(ITH)*ECOS(ITH)
  892         END DO
  893 !
  894       DO IK=2, NK+1
  895         ITH0   = (IK-1)*NTH
  896         DO ITH=1, NTH
  897           ESIN(ITH0+ITH) = ESIN(ITH)
  898           ECOS(ITH0+ITH) = ECOS(ITH)
  899           ES2 (ITH0+ITH) = ES2 (ITH)
  900           EC2 (ITH0+ITH) = EC2 (ITH)
  901           ESC (ITH0+ITH) = ESC (ITH)
  902           END DO
  903         END DO
  904 !
  905 !   b Frequencies :
  906 !
  907       SIGMA   = FR1 * TPI / XFR**2
  908       SXFR    = 0.5 * (XFR-1./XFR)
  909 !
  910       DO IK=0, NK+1
  911         SIGMA    = SIGMA * XFR
  912         SIG (IK) = SIGMA
  913         DSIP(IK) = SIGMA * SXFR
  914         END DO
  915 !
  916       DSII( 1) = 0.5 * SIG( 1) * (XFR-1.)
  917       DO IK=2, NK-1
  918         DSII(IK) = DSIP(IK)
  919         END DO
  920       DSII(NK) = 0.5 * SIG(NK) * (XFR-1.) / XFR
  921 !
  922       DO IK=1, NK
  923         DDEN(IK) = DTH * DSII(IK) * SIG(IK)
  924         END DO
  925 !
  926       DO ISP=1, NSPEC
  927         IK         = 1 + (ISP-1)/NTH
  928         SIG2 (ISP) = SIG (IK)
  929         DDEN2(ISP) = DDEN(IK)
  930         END DO
  931 !
  932 !--- - - - - - - - - - - - - - - - - - - - - - - - - - - - - - - - - -
  933 ! 6   Read and process input file up to numerical parameters
  934 ! 6.a Set model flags and time steps
  935 !
 
 
                                                         ww3_grid.F90  page  18
 
 
  936       WRITE (NDSO,910)
  937       IF (FLGNML) THEN
  938         FLDRY=NML_RUN%FLDRY
  939         FLCX=NML_RUN%FLCX
  940         FLCY=NML_RUN%FLCY
  941         FLCTH=NML_RUN%FLCTH
  942         FLCK=NML_RUN%FLCK
  943         FLSOU=NML_RUN%FLSOU
  944       ELSE
  945         CALL NEXTLN ( COMSTR , NDSI , NDSE )
  946         READ (NDSI,*,END=2001,ERR=2002)                                 &
  947           FLDRY, FLCX, FLCY, FLCTH, FLCK, FLSOU
  948       END IF
  949 !
  950       IYN = 2
  951       IF ( FLDRY ) IYN(1) = 1
  952       IF ( FLCX  ) IYN(2) = 1
  953       IF ( FLCY  ) IYN(3) = 1
  954       IF ( FLCTH ) IYN(4) = 1
  955       IF ( FLCK  ) IYN(5) = 1
  956       IF ( FLSOU ) IYN(6) = 1
  957 !
  958       WRITE (NDSO,911) (YESXNO(IYN(IFL)),IFL=1,NFL)
  959 !
  960       IF ( .NOT. (FLDRY.OR.FLCX.OR.FLCY.OR.FLCK.OR.FLCTH.OR.FLSOU) ) THEN
  961           WRITE (NDSE,1010)
  962           CALL EXTCDE ( 2 )
  963         END IF
  964 !
  965       IF (FLGNML) THEN
  966         DTMAX=NML_TIMESTEPS%DTMAX
  967         DTCFL=NML_TIMESTEPS%DTXY
  968         DTCFLI=NML_TIMESTEPS%DTKTH
  969         DTMIN=NML_TIMESTEPS%DTMIN
  970       ELSE
  971         CALL NEXTLN ( COMSTR , NDSI , NDSE )
  972         READ (NDSI,*,END=2001,ERR=2002) DTMAX, DTCFL, DTCFLI, DTMIN
  973       END IF
  974             
  975       DTMAX  = MAX ( 1. , DTMAX )
  976 !
  977 ! Commented to allow very high resolution zooms
  978 !
  979 !      DTCFL  = MAX ( 1. , DTCFL  )
  980 !      DTCFLI = MIN ( DTMAX , MAX ( 1. , DTCFLI ) )
  981       DTMIN  = MIN ( DTMAX , MAX ( 0. , DTMIN  ) )
  982       WRITE (NDSO,912) DTMAX, DTCFL, DTCFLI, DTMIN
  983 !
  984 ! 6.b Set / select source term package
  985 !
  986       NRLIN  = 0
  987       NRSRCE = 0
  988       NRNL   = 0
  989       NRBT   = 0
  990       NRIC   = 0
 
 
                                                         ww3_grid.F90  page  19
 
 
  991       NRIS   = 0
  992       NRDB   = 0
  993       NRTR   = 0
  994       NRBS   = 0
  995       NRXX   = 0
  996 !
  997       FLLIN  = .TRUE.
  998       FLINDS = .TRUE.
  999       FLNL   = .TRUE.
 1000       FLBT   = .TRUE.
 1001       FLIC   = .FALSE.
 1002       FLIS   = .FALSE.
 1003       FLDB   = .TRUE.
 1004       FLTR   = .TRUE.
 1005       FLBS   = .TRUE.
 1006       FLREF  = .FALSE.
 1007       FLXX   = .TRUE.
 1008 !
 1009       NRLIN  = NRLIN + 1
 1010 !
 1011       NRSRCE = NRSRCE + 1
 1012       FLST4  = .TRUE.
 1013 !
 1014       NRNL   = NRNL + 1
 1015 !
 1016       NRBT   = NRBT + 1
 1017       FLBT   = .FALSE.
 1018 !
 1019       NRDB   = NRDB + 1
 1020       FLDB   = .FALSE.
 1021 !
 1022       NRTR   = NRTR + 1
 1023       FLTR   = .FALSE.
 1024 !
 1025       NRBS   = NRBS + 1
 1026       FLBS   = .FALSE.
 1027 !
 1028       FLREF   = .TRUE.
 1029 !
 1030       NRXX   = NRXX + 1
 1031       FLXX   = .FALSE.
 1032 !
 1033       IF ( .NOT.FLLIN .AND.  .NOT.FLINDS .AND.  .NOT.FLNL .AND.        &
 1034            .NOT.FLBT  .AND.  .NOT.FLIC   .AND.  .NOT.FLIS .AND.        &
 1035            .NOT.FLDB  .AND.  .NOT.FLTR   .AND.  .NOT.FLBS .AND.        &
 1036            .NOT.FLXX  .AND.  .NOT.FLREF  .AND.  FLSOU ) THEN
 1037           WRITE (NDSE,1020)
 1038           CALL EXTCDE ( 10 )
 1039         END IF
 1040 !
 1041       IF ( ( FLLIN .OR. FLINDS .OR. FLNL .OR. FLBT .OR. FLDB .OR.     &
 1042              FLTR .OR. FLBS .OR. FLREF .OR. FLXX .OR. FLIC )          &
 1043              .AND. .NOT.FLSOU ) THEN
 1044           WRITE (NDSE,1021)
 1045         END IF
 
 
                                                         ww3_grid.F90  page  20
 
 
 1046 !
 1047       IF ( NRLIN .NE. 1 ) THEN
 1048           WRITE (NDSE,1022) NRLIN
 1049           CALL EXTCDE ( 11 )
 1050         END IF
 1051 !
 1052       IF ( NRSRCE .NE. 1 ) THEN
 1053           WRITE (NDSE,1023) NRSRCE
 1054           CALL EXTCDE ( 12 )
 1055         END IF
 1056 !
 1057       IF ( NRNL .NE. 1 ) THEN
 1058           WRITE (NDSE,1024) NRNL
 1059           CALL EXTCDE ( 13 )
 1060         END IF
 1061 !
 1062       IF ( NRBT .NE. 1 ) THEN
 1063           WRITE (NDSE,1025) NRBT
 1064           CALL EXTCDE ( 14 )
 1065         END IF
 1066 !
 1067       IF ( NRDB .NE. 1 ) THEN
 1068           WRITE (NDSE,1026) NRDB
 1069           CALL EXTCDE ( 15 )
 1070         END IF
 1071 !
 1072       IF ( NRTR .NE. 1 ) THEN
 1073           WRITE (NDSE,1027) NRTR
 1074           CALL EXTCDE ( 16 )
 1075         END IF
 1076 !
 1077       IF ( NRBS .NE. 1 ) THEN
 1078           WRITE (NDSE,1028) NRBS
 1079           CALL EXTCDE ( 17 )
 1080         END IF
 1081 !
 1082       IF ( NRXX .NE. 1 ) THEN
 1083           WRITE (NDSE,1029) NRXX
 1084           CALL EXTCDE ( 18 )
 1085         END IF
 1086 !
 1087       IF ( NRIC .GT. 1 ) THEN
 1088           WRITE (NDSE,1034) NRIC
 1089           CALL EXTCDE ( 19 )
 1090         END IF
 1091 !
 1092       IF ( NRIS .GT. 1 ) THEN
 1093           WRITE (NDSE,1036) NRIS
 1094           CALL EXTCDE ( 26 )
 1095         END IF
 1096               
 1097               
 1098 !
 1099 ! 6.c Read namelist file or Pre-process namelists into scratch file
 1100 !
 
 
                                                         ww3_grid.F90  page  21
 
 
 1101       WRITE (NDSO,915)
 1102       IF (FLGNML) THEN
 1103         OPEN (NDSS,FILE=TRIM(FNMPRE)//TRIM(NML_GRID%NML),STATUS='OLD',FOR>
 1104       ELSE
 1105         OPEN (NDSS,FILE=TRIM(FNMPRE)//'ww3_grid.scratch',FORM='FORMATTED')
 1106         DO
 1107           CALL NEXTLN ( COMSTR , NDSI , NDSE )
 1108           READ (NDSI,'(A)',END=2001,ERR=2002) LINE
 1109           IF ( LINE(1:16) .EQ. 'END OF NAMELISTS' ) THEN
 1110             EXIT
 1111           ELSE
 1112             WRITE (NDSS,'(A)') LINE
 1113           ENDIF
 1114         END DO
 1115       END IF
 1116       WRITE (NDSO,916)
 1117 !
 1118 ! 6.d Define Sin.
 1119 ! 6.d.1 Stresses
 1120 !
 1121 ! 6.d.2 Linear input
 1122 !
 1123       CLIN   = 80.
 1124       RFPM   =  1.
 1125       RFHF   =  0.5
 1126 !
 1127       CALL READNL ( NDSS, 'SLN1', STATUS )
 1128       WRITE (NDSO,820) STATUS
 1129       CLIN   = MAX (0.,CLIN)
 1130       RFPM   = MAX (0.,RFPM)
 1131       RFHF   = MAX(0.,MIN (1.,RFHF))
 1132       WRITE (NDSO,821) CLIN, RFPM, RFHF
 1133       SLNC1  = CLIN * (DAIR/DWAT)**2 / GRAV**2
 1134       FSPM   = RFPM
 1135       FSHF   = RFHF
 1136 !
 1137 ! 6.d.3 Exponential input
 1138 !
 1139       ZWND   =   10.
 1140       ALPHA0 = 0.0095
 1141       Z0MAX = 0.0
 1142       Z0RAT = 0.04
 1143       BETAMAX   = 1.43
 1144       SINTHP    = 2.
 1145       SWELLF    = 0.66
 1146       SWELLFPAR = 1
 1147       SWELLF2 = -0.018
 1148       SWELLF3 = 0.022
 1149       SWELLF4 = 1.5E5
 1150       SWELLF5 = 1.2
 1151       SWELLF6 = 0.
 1152       SWELLF7 = 360000.
 1153       TAUWSHELTER = 0.3
 1154       ZALP   = 0.006
 1155       SINBR   = 0.
 
 
                                                         ww3_grid.F90  page  22
 
 
 1156 !
 1157       CALL READNL ( NDSS, 'SIN4', STATUS )
 1158       WRITE (NDSO,920) STATUS
 1159       WRITE (NDSO,921) ALPHA0, BETAMAX, SINTHP, Z0MAX, ZALP, ZWND, TAUWSH>
 1160            SWELLFPAR, SWELLF, SWELLF2, SWELLF3, SWELLF4, SWELLF5, &
 1161            SWELLF6, SWELLF7, Z0RAT
 1162       ZZWND  = ZWND
 1163       AALPHA = ALPHA0
 1164       BBETA  = BETAMAX
 1165       SSINBR  = SINBR
 1166       SSINTHP  = SINTHP
 1167       ZZ0MAX  = Z0MAX
 1168       ZZ0RAT  = Z0RAT
 1169       ZZALP  = ZALP
 1170       TTAUWSHELTER = TAUWSHELTER
 1171       SSWELLF(1) = SWELLF
 1172       SSWELLF(2) = SWELLF2
 1173       SSWELLF(3) = SWELLF3
 1174       SSWELLF(4) = SWELLF4
 1175       SSWELLF(5) = SWELLF5
 1176       SSWELLF(6) = SWELLF6
 1177       SSWELLF(7) = SWELLF7
 1178       SSWELLFPAR = SWELLFPAR
 1179 !
 1180 ! 6.e Define Snl.
 1181 !
 1182       LAMBDA =  0.25
 1183       IF ( FLTC96 ) THEN
 1184           NLPROP =  1.00E7
 1185         ELSE IF ( FLST4 ) THEN
 1186           NLPROP =  2.50E7
 1187         ELSE IF ( FLST6 ) THEN
 1188           NLPROP =  3.00E7
 1189         ELSE
 1190           NLPROP =  2.78E7
 1191         END IF
 1192 !
 1193       KDCONV =  0.75
 1194       KDMIN  =  0.50
 1195       SNLCS1 =  5.5
 1196       SNLCS2 =  0.833
 1197       SNLCS3 = -1.25
 1198 !
 1199       CALL READNL ( NDSS, 'SNL1', STATUS )
 1200       WRITE (NDSO,922) STATUS
 1201       WRITE (NDSO,923) LAMBDA, NLPROP, KDCONV, KDMIN,            &
 1202                        SNLCS1, SNLCS2, SNLCS3
 1203       SNLC1  = NLPROP / GRAV**4
 1204       LAM    = LAMBDA
 1205       KDCON  = KDCONV
 1206       KDMN   = KDMIN
 1207       SNLS1  = SNLCS1
 1208       SNLS2  = SNLCS2
 1209       SNLS3  = SNLCS3
 1210 !
 
 
                                                         ww3_grid.F90  page  23
 
 
 1211       FACHF  = 5.
 1212 !
 1213 !!/NL3      MSC    = MAX ( 0. , MIN ( 8. , MSC ) )  ! Disabled HLT ca. 20>
 1214 !
 1215 ! 6.f Define Sds.
 1216 !
 1217       WNMEANP = 0.5    ! taken from Bidlot et al. 2005
 1218       FXFM3 = 2.5
 1219       FXFMAGE = 0.
 1220       FXPM3 = 4.
 1221       WNMEANPTAIL = -0.5
 1222       SDSBCHOICE =1 ! 1: Ardhuin et al., 2: Filipot & Ardhuin, 3: Romero
 1223       SDSC2     = -2.2E-5     ! -3.8 for Romero
 1224       SDSCUM    = -0.40344
 1225       SDSC4     = 1.
 1226       SDSC5     = 0.
 1227       SDSNUW    = 0.
 1228       SDSC6     = 0.3
 1229       SDSBR     = 0.90E-3     ! 0.005 for Romero
 1230       SDSBRFDF  = 0
 1231       SDSBRF1   = 0.5
 1232       SDSP      = 2.   ! this is now fixed in w3sds4, should be cleaned up
 1233       SDSDTH    = 80.
 1234       SDSCOS    = 2.
 1235       SDSISO    = 2
 1236       SDSBM0    = 1.
 1237       SDSBM1    = 0.
 1238       SDSBM2    = 0.
 1239       SDSBM3    = 0.
 1240       SDSBM4    = 0.
 1241       SDSBCK    = 0.
 1242       SDSABK    = 1.5
 1243       SDSPBK    = 4.
 1244       SDSBINT   = 0.3
 1245       SDSHCK    = 1.5
 1246       WHITECAPWIDTH = 0.3
 1247       SDSSTRAIN = 0.
 1248       SDSFACMTF =  400    ! MTF factor for Lambda , Romero (2019)
 1249       SDSSTRAINA = 15.
 1250       SDSSTRAIN2 = 0.
 1251       WHITECAPDUR   = 0.56 ! breaking duration factor
 1252       SDSBT     = 1.100E-3 ! B_T (sturation threshold for dissipation rat>
 1253       SDSL     = 3.5000e-05  ! L scaling
 1254       SPMSS     = 0.5    ! cmss^SPMSS
 1255       SDSNMTF   = 1.5    ! MTF power
 1256       SDSCUMP   = 2.
 1257       SDSMWD    = .9  ! new AFo
 1258       SDSMWPOW  = 1.  ! (k )^pow
 1259       SDKOF     = 3.  !  ko factor such that ko= g (SDKOF/(28 us))^2
 1260 !
 1261       CALL READNL ( NDSS, 'SDS4', STATUS )
 1262       WRITE (NDSO,924) STATUS
 1263       WRITE (NDSO,925) SDSC2, SDSBCK, SDSCUM, WNMEANP
 1264       SSDSC(1)   = REAL(SDSBCHOICE)
 1265       SSDSC(2)   = SDSC2
 
 
                                                         ww3_grid.F90  page  24
 
 
 1266       SSDSC(3)   = SDSCUM
 1267       SSDSC(4)   = SDSC4
 1268       SSDSC(5)   = SDSC5
 1269       SSDSC(6)   = SDSC6
 1270       SSDSC(7)   = WHITECAPWIDTH
 1271       SSDSC(8)   = SDSSTRAIN   ! Straining constant ...
 1272       SSDSC(9)   = SDSL
 1273       SSDSC(10)  = SDSSTRAINA*NTH/360. ! angle Aor enhanced straining
 1274       SSDSC(11)  = SDSSTRAIN2  ! straining constant for directional part
 1275       SSDSC(12)  = SDSBT
 1276       SSDSC(13)  = SDSMWD
 1277       SSDSC(14)  = SPMSS
 1278       SSDSC(15)  = SDSMWPOW
 1279       SSDSC(16)  = SDKOF
 1280       SSDSC(17)  = WHITECAPDUR
 1281       SSDSC(18)  = SDSFACMTF
 1282       SSDSC(19)  = SDSNMTF
 1283       SSDSC(20)  = SDSCUMP
 1284       SSDSC(21)  = SDSNUW
 1285 !
 1286       SSDSBR   = SDSBR
 1287       SSDSBRF1 = SDSBRF1
 1288       SSDSBRFDF= SDSBRFDF
 1289       SSDSBM(0)   = SDSBM0
 1290       SSDSBM(1)   = SDSBM1
 1291       SSDSBM(2)   = SDSBM2
 1292       SSDSBM(3)   = SDSBM3
 1293       SSDSBM(4)   = SDSBM4
 1294       SSDSBT   = SDSBT
 1295       SSDSISO  = SDSISO
 1296       SSDSCOS  = SDSCOS
 1297       SSDSP    = SDSP
 1298       SSDSDTH  = SDSDTH
 1299       WWNMEANP   = WNMEANP
 1300       FFXFM = FXFM3 * TPI
 1301       FFXFA = FXFMAGE * TPI
 1302       FFXPM = FXPM3 * GRAV / 28.
 1303       WWNMEANPTAIL   = WNMEANPTAIL
 1304       SSDSBCK   = SDSBCK
 1305       SSDSABK   = SDSABK
 1306       SSDSPBK   = SDSPBK
 1307       SSDSBINT  = SDSBINT
 1308       SSDSHCK   = SDSHCK
 1309 !
 1310 ! 6.g Define Sbt.
 1311 !
 1312       WRITE (NDSO,926)
 1313 !
 1314 ! 6.h Define Sdb.
 1315 !
 1316       WRITE (NDSO,928)
 1317 !
 1318 ! 6.i Define Str.
 1319 !
 1320       WRITE (NDSO,930)
 
 
                                                         ww3_grid.F90  page  25
 
 
 1321 !
 1322 ! 6.j Define Sbs.
 1323 !
 1324       WRITE (NDSO,932)
 1325 !
 1326 ! 6.k Define Sxx and Sic.
 1327 !
 1328 ! !/XX0      WRITE (NDSO,934)
 1329 !
 1330 ! 6.l Read unstructured data
 1331 ! initialisation of logical related to unstructured grid
 1332        UGOBCAUTO = .TRUE.
 1333        UGBCCFL = .TRUE.
 1334        UGOBCDEPTH= -10.
 1335        UGOBCOK = .FALSE.
 1336        UGOBCFILE = 'unset'
 1337        EXPFSN    = .TRUE.
 1338        EXPFSPSI  = .FALSE.
 1339        EXPFSFCT  = .FALSE.
 1340        IMPFSN    = .FALSE.
 1341        IMPTOTAL  = .FALSE.
 1342        EXPTOTAL  = .FALSE.
 1343        IMPREFRACTION = .FALSE.
 1344        IMPFREQSHIFT = .FALSE.
 1345        IMPSOURCE = .FALSE.
 1346        SETUP_APPLY_WLV = .FALSE.
 1347        SOLVERTHR_SETUP=1E-14
 1348        CRIT_DEP_SETUP=0.1
 1349        JGS_TERMINATE_MAXITER = .TRUE.
 1350        JGS_TERMINATE_DIFFERENCE = .TRUE.
 1351        JGS_TERMINATE_NORM = .FALSE.
 1352        JGS_LIMITER = .FALSE.
 1353        JGS_BLOCK_GAUSS_SEIDEL = .TRUE.
 1354        JGS_USE_JACOBI = .TRUE.
 1355        JGS_MAXITER=100
 1356        JGS_PMIN = 1
 1357        JGS_DIFF_THR = 1.E-10
 1358        JGS_NORM_THR = 1.E-20
 1359        JGS_NLEVEL = 0
 1360        JGS_SOURCE_NONLINEAR = .FALSE.
 1361 ! read data from the unstructured devoted namelist
 1362        CALL READNL ( NDSS, 'UNST', STATUS )
 1363                                            
 1364        B_JGS_USE_JACOBI = JGS_USE_JACOBI
 1365        B_JGS_TERMINATE_MAXITER = JGS_TERMINATE_MAXITER
 1366        B_JGS_TERMINATE_DIFFERENCE = JGS_TERMINATE_DIFFERENCE
 1367        B_JGS_TERMINATE_NORM = JGS_TERMINATE_NORM
 1368        B_JGS_LIMITER = JGS_LIMITER
 1369        B_JGS_BLOCK_GAUSS_SEIDEL = JGS_BLOCK_GAUSS_SEIDEL
 1370        B_JGS_MAXITER = JGS_MAXITER
 1371        B_JGS_PMIN = JGS_PMIN
 1372        B_JGS_DIFF_THR = JGS_DIFF_THR
 1373        B_JGS_NORM_THR = JGS_NORM_THR
 1374        B_JGS_NLEVEL = JGS_NLEVEL
 1375        B_JGS_SOURCE_NONLINEAR = JGS_SOURCE_NONLINEAR
 
 
                                                         ww3_grid.F90  page  26
 
 
 1376                                                     
 1377        IF ((EXPFSN .eqv. .FALSE.).and.(EXPFSPSI .eqv. .FALSE.)     &
 1378            .and.(EXPFSFCT .eqv. .FALSE.)                           &
 1379            .and.(IMPFSN .eqv. .FALSE.)                             &
 1380            .and.(EXPTOTAL .eqv. .FALSE.)                           &
 1381            .and.(IMPTOTAL .eqv. .FALSE.)) THEN
 1382          EXPFSN=.TRUE. ! This is the default scheme ...
 1383        END IF
 1384        nbSel=0
 1385               
 1386        IF (EXPFSN) nbSel=nbSel+1
 1387        IF (EXPFSPSI) nbSel=nbSel+1
 1388        IF (EXPFSFCT) nbSel=nbSel+1
 1389        IF (IMPFSN) nbSel=nbSel+1
 1390        IF (IMPTOTAL) nbSel=nbSel+1
 1391        IF (EXPTOTAL) nbSel=nbSel+1
 1392                                   
 1393        IF (GTYPE .EQ. UNGTYPE) THEN
 1394          IF (nbSel .ne. 1) THEN
 1395            WRITE(NDSE,*) ' *** WAVEWATCH III ERROR IN WW3_GRID:'
 1396            IF (nbSel .gt. 1) THEN
 1397              WRITE (NDSE,*) 'More than one scheme selected'
 1398            ELSE IF (nbSel .eq. 0) THEN
 1399              WRITE (NDSE,*) 'no scheme selected'
 1400            END IF
 1401            WRITE (NDSE,*)'Select only one of EXPFSN, EXPFSFCT, EXPFSPSI'
 1402            WRITE (NDSE,*)'IMPFSN, IMPTOTAL'
 1403            CALL EXTCDE ( 30 )
 1404          END IF
 1405        END IF
 1406 !
 1407 ! 6.m Select propagation scheme
 1408 !
 1409       WRITE (NDSO,950)
 1410 !
 1411       NRPROP = 0
 1412       FLPROP = .TRUE.
 1413       PNAME  = '                              '
 1414       PNAME  = '3rd order UQ'
 1415        J = LEN_TRIM(PNAME)
 1416       PNAME  = PNAME(1:J)//' + GSE averaging '
 1417       NRPROP = NRPROP + 1
 1418 !
 1419       IF ( (FLCX.OR.FLCY.OR.FLCTH.OR.FLCK) .AND. .NOT. FLPROP ) THEN
 1420           WRITE (NDSE,1030)
 1421           CALL EXTCDE ( 20 )
 1422         END IF
 1423 !
 1424       IF ( .NOT.(FLCX.OR.FLCY.OR.FLCTH.OR.FLCK) .AND. FLPROP ) THEN
 1425           WRITE (NDSE,1031)
 1426         END IF
 1427 !
 1428       IF ( NRPROP.EQ.0 ) THEN
 1429           WRITE (NDSE,1032)
 1430           CALL EXTCDE ( 21 )
 
 
                                                         ww3_grid.F90  page  27
 
 
 1431         END IF
 1432 !
 1433       IF ( NRPROP .GT. 1 ) THEN
 1434           WRITE (NDSE,1033) NRPROP
 1435           CALL EXTCDE ( 22 )
 1436         END IF
 1437 !
 1438 ! 6.m Parameters for propagation scheme
 1439 !
 1440       WRITE (NDSO,951) PNAME
 1441 !
 1442       CFLTM  =  0.7
 1443 !
 1444       WDTHCG = 1.5
 1445       WDTHTH = WDTHCG
 1446 !
 1447       CALL READNL ( NDSS, 'PRO3', STATUS )
 1448       IF ( STATUS(18:18) .EQ. ':' ) STATUS(18:18) = ' '
 1449        IF (GTYPE.NE.UNGTYPE) THEN
 1450           WRITE (NDSO,952) STATUS(1:18)
 1451       CFLTM  = MAX ( 0. , CFLTM )
 1452           WRITE (NDSO,953) CFLTM, WDTHCG
 1453       IF ( WDTHCG*(XFR-1.) .GT. 1. ) WRITE (NDSO,955) 1./(XFR-1.)
 1454           WRITE (NDSO,954) WDTHTH
 1455       IF ( WDTHTH*DTH .GT. 1. ) WRITE (NDSO,955) 1./DTH
 1456           WRITE (NDSO,*)
 1457        ENDIF
 1458       WDCG   = WDTHCG
 1459       WDTH   = WDTHTH
 1460 !
 1461       CTMAX  = CFLTM
 1462 !
 1463 ! 6.n Set miscellaneous parameters (ice, seeding, numerics ... )
 1464 !
 1465       CICE0  = 0.5
 1466       CICEN  = 0.5
 1467       LICE   = 0.
 1468       ICEHFAC= 1.0
 1469       ICEHMIN= 0.2  ! the 0.2 value is arbitrary and needs to be tuned.
 1470       ICEHINIT= 0.5
 1471       ICESLN = 1.0
 1472       ICEWIND= 1.0
 1473       ICESNL = 1.0
 1474       ICESDS = 1.0
 1475       ICEHDISP= 0.6 ! Prevent from convergence crash in w3dispmd in the p>
 1476       ICEDDISP= 80
 1477       ICEFDISP= 2
 1478       GSHIFT = 0.0D0
 1479       PMOVE  = 0.5
 1480       XSEED  = 1.
 1481       FLAGTR = 0
 1482       XP     = 0.15
 1483       XR     = 0.10
 1484       XFILT  = 0.05
 1485       IHM    = 100
 
 
                                                         ww3_grid.F90  page  28
 
 
 1486       HSPM   = 0.05
 1487       WSM    = 1.7
 1488       WSC    = 0.333
 1489       FLC    = .TRUE.
 1490       TRCKCMPR = .TRUE.
 1491       NOSW   = 5
 1492 !
 1493 ! Gas fluxes
 1494 !
 1495       AIRCMIN   = 2.0  ! cmin for whitecap coverage and entrained air
 1496       AIRGB     = 0.2  ! volume of entrained air constant (Deike et al. 2>
 1497 !
 1498       PTM    = 1    ! Default to standard WW3 partitioning. C. Bunney
 1499       PTFC   = 0.1  ! Part. method 5 cutoff freq default. C. Bunney
 1500       FMICHE = 1.6
 1501       RWNDC  = 1.
 1502       WCOR1  = 99.
 1503       WCOR2  = 0.
 1504       BTBET  = 1.2 !  for c / [U cos( - )] < 
 1505 ! Variables for Space-Time Extremes
 1506 !  Default negative values make w3iogomd switch off space-time extremes
 1507 !  forces user to provide NAMELIST if wanting to compute STE parameters
 1508       STDX = -1.
 1509       STDY = -1.
 1510       STDT = -1.
 1511       ICEDISP = .FALSE.
 1512       CALTYPE = 'standard'
 1513 ! Variables for 3D array output
 1514       E3D=0
 1515       I1E3D=1
 1516       I2E3D=NK
 1517       P2SF   = 0
 1518       I1P2SF = 1	
 1519       I2P2SF = 15
 1520       US3D   = 0
 1521       I1US3D = 1
 1522       I2US3D = NK
 1523       USSP=0
 1524       IUSSP=1
 1525       STK_WN(:)=0.0
 1526       STK_WN(1)=TPI/100. !Set default decay of 100 m for Stokes drift
 1527       TH1MF=0
 1528       I1TH1M=1
 1529       I2TH1M=NK
 1530       STH1MF=0
 1531       I1STH1M=1
 1532       I2STH1M=NK
 1533       TH2MF=0
 1534       I1TH2M=1
 1535       I2TH2M=NK
 1536       STH2MF=0
 1537       I1STH2M=1
 1538       I2STH2M=NK
 1539 !
 1540       FACBERG=1.
 
 
                                                         ww3_grid.F90  page  29
 
 
 1541       WRITE (NDSO,944)
 1542 !                            ! compared to the 0.2 value in Boutin et al.>
 1543 !
 1544       REFCOAST=0.
 1545       REFMAP=0.
 1546       REFMAPD=0.
 1547       REFRMAX=1.
 1548       REFFREQPOW=2.
 1549       REFFREQ=0.
 1550       REFCOSP_STRAIGHT=4.
 1551       REFSLOPE=0.22
 1552       REFSUBGRID=0.
 1553       REFICEBERG=0.
 1554       REFUNSTSOURCE=0.
 1555 !
 1556       CALL READNL ( NDSS, 'REF1', STATUS )
 1557       WRITE (NDSO,969) STATUS
 1558 !
 1559        IGMETHOD = 2
 1560        IGADDOUTP= 0
 1561        IGSOURCE = 2
 1562        IGSTERMS = 0
 1563        IGMAXFREQ=0.03
 1564        IGSOURCEATBP = 0
 1565        IGBCOVERWRITE = .TRUE.
 1566        IGSWELLMAX = .TRUE.
 1567        IGKDMIN = 1.1
 1568        IGFIXEDDEPTH = 0.
 1569        IGEMPIRICAL = 0.00125
 1570 !
 1571       CALL READNL ( NDSS, 'SIG1 ', STATUS )
 1572       WRITE (NDSO,970) STATUS
 1573 !
 1574 !fixme: if USECGICE = .TRUE., don't allow use of IC3MAXTHK<100.0
 1575                                                                 
 1576 !
 1577       CALL READNL ( NDSS, 'OUTS', STATUS )
 1578       WRITE (NDSO,4970) STATUS
 1579 !
 1580 ! output of frequency spectra, th1m ...
 1581 !
 1582       E3DF(1,1) = E3D
 1583       E3DF(2,1) = MIN(MAX(1,I1E3D),NK)
 1584       E3DF(3,1) = MIN(MAX(1,I2E3D),NK)
 1585       E3DF(1,2) = TH1MF
 1586       E3DF(2,2) = MIN(MAX(1,I1TH1M),NK)
 1587       E3DF(3,2) = MIN(MAX(1,I2TH1M),NK)
 1588       E3DF(1,3) = STH1MF
 1589       E3DF(2,3) = MIN(MAX(1,I1STH1M),NK)
 1590       E3DF(3,3) = MIN(MAX(1,I2STH1M),NK)
 1591       E3DF(1,4) = TH2MF
 1592       E3DF(2,4) = MIN(MAX(1,I1TH2M),NK)
 1593       E3DF(3,4) = MIN(MAX(1,I2TH2M),NK)
 1594       E3DF(1,5) = STH2MF
 1595       E3DF(2,5) = MIN(MAX(1,I1STH2M),NK)
 
 
                                                         ww3_grid.F90  page  30
 
 
 1596       E3DF(3,5) = MIN(MAX(1,I2STH2M),NK)
 1597 !
 1598 ! output of microseismic source spectra
 1599 !
 1600       P2MSF(1) = P2SF
 1601       P2MSF(2) = MIN(MAX(1,I1P2SF),NK)
 1602       P2MSF(3) = MIN(MAX(1,I2P2SF),NK)
 1603 !
 1604 ! output of Stokes drift profile
 1605 !
 1606       US3DF(1) = US3D
 1607       US3DF(2) = MAX( 1 , MIN( NK, I1US3D) )
 1608       US3DF(3) = MAX( 1 , MIN( NK, I2US3D) )
 1609 !
 1610 ! output of Stokes drift partitions
 1611 !
 1612       USSPF(1) = USSP
 1613       USSPF(2) = MAX( 1 , MIN(25, IUSSP ) )
 1614       IF (IUSSP.GT.25) THEN
 1615          WRITE(NDSE,*) ' *** WAVEWATCH III ERROR IN ww3_grid:'
 1616          WRITE(NDSE,*) "  Stokes drift partition outputs not    "
 1617          WRITE(NDSE,*) "   intended for use with more than 25   "
 1618          WRITE(NDSE,*) "   partitions.  Please reduce IUSSP     "
 1619          WRITE(NDSE,*) "   specified in ww3_grid.inp to proceed "
 1620          CALL EXTCDE( 31)
 1621       ENDIF
 1622            
 1623       DO J=1,USSPF(2)
 1624          USSP_WN(j) = STK_WN(J)
 1625       ENDDO
 1626            
 1627 !
 1628       WRITE (NDSO,4971) P2MSF(1:3)
 1629       WRITE (NDSO,4972) US3DF(1:3)
 1630       WRITE (NDSO,4973) E3DF(1:3,1)
 1631       WRITE (NDSO,4974) USSPF(1:2)
 1632       DO J=1,USSPF(2)
 1633          WRITE(NDSO,4975) J,USSP_WN(J)
 1634       ENDDO
 1635 !
 1636       CALL READNL ( NDSS, 'MISC', STATUS )
 1637       WRITE (NDSO,960) STATUS
 1638 !
 1639       IF ( FLAGTR.LT.0 .OR. FLAGTR.GT.6 ) FLAGTR = 0
 1640       CICEN  = MIN ( 1. , MAX ( 0. , CICEN ) )
 1641       ICESLN  = MIN ( 1. , MAX ( 0. , ICESLN ) )
 1642       ICEWIND = MIN ( 1. , MAX ( 0. , ICEWIND ) )
 1643       ICESDS  = MIN ( 1. , MAX ( 0. , ICESDS ) )
 1644       ICESNL  = MIN ( 1. , MAX ( 0. , ICESNL ) )
 1645       FICEN  = CICEN
 1646       GRIDSHIFT=GSHIFT
 1647       ICESCALES(1)=ICESLN
 1648       ICESCALES(2)=ICEWIND
 1649       ICESCALES(3)=ICESNL
 1650       ICESCALES(4)=ICESDS
 
 
                                                         ww3_grid.F90  page  31
 
 
 1651       CMPRTRCK=TRCKCMPR
 1652       CICE0  = MIN ( CICEN , MAX ( 0. , CICE0 ) )
 1653       FICEL  = LICE
 1654       IICEHMIN  = ICEHMIN
 1655       IICEHFAC  = ICEHFAC
 1656       IICEHINIT  = ICEHINIT
 1657       IICEDISP= ICEDISP
 1658       IICEHDISP  = ICEHDISP
 1659       IICEDDISP  = ICEDDISP
 1660       IICEFDISP  = ICEFDISP
 1661       PMOVE  = MAX ( 0. , PMOVE )
 1662       PFMOVE = PMOVE
 1663 !
 1664       BTBETA = MIN(MAX (1., BTBET), 2.)
 1665       AAIRCMIN = ALOG(GRAV/AIRCMIN/SIG(1))/ALOG(XFR)+1 ! goes from phase >
 1666       AAIRGB = AIRGB
 1667 !
 1668 ! Notes: Presently, if we select CICE0.ne.CICEN requires an obstruction
 1669 !     grid, that is initialized with zeros as default.
 1670       IF ( FLAGTR .LT. 3 ) THEN
 1671         IF (CICE0.NE.CICEN) THEN
 1672           CICE0 = CICEN
 1673           IF (STATUS=='(user def. values) :')  WRITE (NDSO,2961)
 1674           END IF
 1675         END IF
 1676       IF ( CICE0.EQ.CICEN .AND. FLAGTR.GE.3 ) FLAGTR = FLAGTR - 2
 1677       WRITE (NDSO,961) CICE0, CICEN
 1678       WRITE (NDSO,8972) ICEWIND
 1679       FICE0  = CICE0
 1680 ! Variables for Space-Time Extremes
 1681       STEXU = STDX
 1682       IF ( STDY .LE. 0. ) THEN
 1683         STDY = STDX
 1684       END IF
 1685       STEYU = STDY
 1686       STEDU = STDT
 1687       IF ( STDX .GT. 0 ) THEN
 1688          WRITE (NDSO,1040) STDX
 1689          WRITE (NDSO,1041) STDY
 1690       ELSE
 1691          WRITE (NDSO,1042)
 1692       END IF
 1693       IF ( STDT .GT. 0 ) THEN
 1694          WRITE (NDSO,1043) STDT
 1695       ELSE
 1696          WRITE (NDSO,1044)
 1697       END IF
 1698 !
 1699       WRITE (NDSO,1972) TRCKCMPR
 1700       FACSD  = XSEED
 1701  RWINDC = RWNDC
 1702 !
 1703       XP     = MAX ( 1.E-6 , XP )
 1704       XR     = MAX ( 1.E-6 , XR )
 1705       XREL   = XR
 
 
                                                         ww3_grid.F90  page  32
 
 
 1706       XFILT  = MAX ( 0. , XFILT )
 1707       XFLT   = XFILT
 1708       WRITE (NDSO,965) XP, XR, XFILT
 1709       FACP   = XP / PI * 0.62E-3 * TPI**4 / GRAV**2
 1710 !
 1711       IHMAX  = MAX ( 50, IHM )
 1712       HSPMIN = MAX ( 0.0001 , HSPM )
 1713       WSMULT = MAX ( 1. , WSM )
 1714       WSCUT  = MIN ( 1.0001 , MAX ( 0. , WSC ) )
 1715       FLCOMB = FLC
 1716       NOSWLL = MAX ( 1 , NOSW )
 1717       PTMETH = PTM  ! Partitioning method. Chris Bunney (Jan 2016)
 1718       PTFCUT = PTFC ! Freq cutoff for partitiong method 5
 1719       PMNAM2 = ""
 1720       IF( PTMETH .EQ. 1 ) THEN
 1721         PMNAME = "WW3 default"
 1722       ELSE IF( PTMETH .EQ. 2 ) THEN
 1723         PMNAME = "Watershedding plus wind cut-off"
 1724       ELSE IF( PTMETH .EQ. 3 ) THEN
 1725         PMNAME = "Watershedding only"
 1726         WSCUT = 0.0 ! We don't want to classify by ws frac
 1727         PMNAM2 = "WSC set to 0.0"
 1728       ELSE IF( PTMETH .EQ. 4 ) THEN
 1729         PMNAME = "Wind speed cut-off only"
 1730         PMNAM2 = "WSC set to 0.0, NOSW set to 1"
 1731         WSCUT = 0.0 ! We don't want to classify by ws frac
 1732         NOSWLL = 1  ! Only ever one swell
 1733       ELSE IF( PTMETH .EQ. 5 ) THEN
 1734         WRITE(PMNAME, '("2-Band hi/low cutoff at ", F4.2,"Hz")') PTFCUT
 1735         PMNAM2 = "WSC set to 0.0, NOSW set to 1"
 1736         WSCUT = 0.0 ! We don't want to classify by ws frac
 1737         NOSWLL = 1  ! Only ever one swell
 1738       ELSE
 1739         WRITE( NDSE, * )                                                &
 1740           "*** Error - unknown partitioing method (PTM)! ***"
 1741         CALL EXIT(1)
 1742       ENDIF
 1743            
 1744         IF ( FLCOMB ) THEN
 1745           J      = 1
 1746         ELSE
 1747           J      = 2
 1748         END IF
 1749       WRITE (NDSO,966) IHMAX, HSPMIN, WSMULT, WSCUT, YESXNO(J), NOSWLL
 1750       WRITE (NDSO,5971) PMNAME
 1751       IF( PMNAM2 .NE. "" ) WRITE (NDSO,5972) PMNAM2
 1752 !!    WRITE (NDSO,966) IHMAX, HSPMIN, WSMULT, WSCUT, YESXNO(J)
 1753 !
 1754       FHMAX  = MAX ( 0.01 , FMICHE )
 1755       J      = 2
 1756       J      = 1
 1757       WRITE (NDSO,967) FHMAX, FHMAX/SQRT(2.), YESXNO(J)
 1758       IF ( FHMAX.LT.0.50 .AND. J.EQ.1 ) WRITE (NDST,968)
 1759 !
 1760       IF (TRIM(CALTYPE) .NE. 'standard' .AND.                           &
 
 
                                                         ww3_grid.F90  page  33
 
 
 1761           TRIM(CALTYPE) .NE. '360_day'  .AND.                           &
 1762           TRIM(CALTYPE) .NE. '365_day' ) GOTO 2003
 1763       WRITE (NDST,1973) CALTYPE
[...]
 3816                '       Layout indicator            :',I6/             &
 3817                '       Format indicator            :',I6)
 3818 !
 3819   979 FORMAT ( '  Processing ',A)
 3820   980 FORMAT (/'  Input boundary points : '/                          &
 3821                ' --------------------------------------------------')
 3822  1980 FORMAT (/'  Excluded points : '/                                &
 3823                ' --------------------------------------------------')
 3824   981 FORMAT ( '   *** POINT OUTSIDE GRID (SKIPPED), IX, IY =')
 3825  1981 FORMAT ( '   *** POINT ALREADY EXCLUDED (SKIPPED), IX, IY =')
 3826   982 FORMAT ( '   *** CANNOT CONNECT POINTS, IX, IY =')
 3827   985 FORMAT ( '       No boundary points.'/)
 3828   986 FORMAT ( '       Number of boundary points   :',I6/)
 3829  1985 FORMAT ( '       No excluded points.'/)
 3830  1986 FORMAT ( '       Number of excluded points   :',I6/)
 3831   987 FORMAT ( '         Nr.|   IX  |   IY  |  Long.  |   Lat.  '/       >
 3832                '       -----|-------|-------|---------|---------')
 3833  1987 FORMAT ( '         Nr.|   IX  |   IY  |     X     |     Y     '/   >
 3834                '       -----|-------|-------|-----------|-----------')
 3835   988 FORMAT ( '       ',I4,2(' |',I6),2(' |',F8.2))
 3836  1988 FORMAT ( '       ',I4,2(' |',I6),2(' |',F8.1,'E3'))
 3837   989 FORMAT ( ' ')
 3838 !
 3839   990 FORMAT (/'  Output boundary points : '/                         &
 3840                ' --------------------------------------------------')
 3841   991 FORMAT ( '       File nest',I1,'.ww3  Number of points  :',I6/  &
 3842                '                       Number of spectra :',I6)
 3843  1991 FORMAT ( '                       Dest. grid Polat:',F6.2,', Polon:'>
 3844   992 FORMAT (/'         Nr.|  Long.  |   Lat.  '/               &
 3845                '       -----|---------|---------')
 3846  1992 FORMAT (/'         Nr.|  Long.  |   Lat.  ',               &
 3847                '         Nr.|  Long.  |   Lat.  '/               &
 3848                '       -----|---------|---------',               &
 3849                '       -----|---------|---------')
 3850   993 FORMAT ( '       ',I4,2(' |',F8.2))
 
 
                                                         ww3_grid.F90  page  71
 
 
 3851  1993 FORMAT ( '       ',I4,2(' |',F8.2),                        &
 3852               '        ',I4,2(' |',F8.2))
 3853   994 FORMAT ( '   *** POINT OUTSIDE GRID (SKIPPED) : X,Y =',2F10.5)
 3854   995 FORMAT ( '   *** POINT ON LAND      (SKIPPED) : X,Y =',2F10.5)
 3855  2992 FORMAT (/'         Nr.|     X     |     Y     '/           &
 3856                '       -----|-----------|-----------')
 3857  3992 FORMAT (/'         Nr.|     X     |     Y     ',           &
 3858                  '       Nr.|     X     |     Y     '/           &
 3859                '       -----|-----------|-----------',           &
 3860                  '     -----|-----------|-----------')
 3861  2993 FORMAT ( '       ',I4,2(' |',F8.1,'E3'))
 3862  3993 FORMAT ( '       ',I4,2(' |',F8.1,'E3'),                   &
 3863                 '      ',I4,2(' |',F8.1,'E3'))
 3864  2994 FORMAT ( '   *** POINT OUTSIDE GRID (SKIPPED) : X,Y =',2(F8.1,'E3'))
 3865  2995 FORMAT ( '   *** POINT ON LAND      (SKIPPED) : X,Y =',2(F8.1,'E3'))
 3866   996 FORMAT ( '       No boundary points.'/)
 3867   997 FORMAT ( '       Number of boundary points   :',I6/             &
 3868                '       Number of spectra           :',I6/)
 3869 !
 3870   998 FORMAT (50I2)
 3871  1998 FORMAT (50I2)
 3872 !
 3873   999 FORMAT (/'  Writing model definition file ...'/)
 3874 !
 3875  1000 FORMAT (/' *** WAVEWATCH III ERROR IN W3GRID : '/               &
 3876                '     ERROR IN OPENING INPUT FILE'/                    &
 3877                '     IOSTAT =',I5/)
 3878 !
 3879  1001 FORMAT (/' *** WAVEWATCH III ERROR IN W3GRID : '/               &
 3880                '     PREMATURE END OF INPUT FILE'/)
 3881 !
 3882  1002 FORMAT (/' *** WAVEWATCH III ERROR IN W3GRID : '/               &
 3883                '     ERROR IN READING FROM INPUT FILE'/               &
 3884                '     IOSTAT =',I5/)
 3885 !
 3886  1003 FORMAT (/' *** WAVEWATCH III ERROR IN W3GRID : '/               &
 3887                '     INVALID CALENDAR TYPE: SELECT ONE OF:',          &
 3888                '     standard, 360_day, or 365_day '/)
 3889 !
 3890  1004 FORMAT (/' *** WAVEWATCH III ERROR IN W3GRID : '/               &
 3891                '     CANNOT READ UNFORMATTED (IDFM = 3) FROM UNIT',   &
 3892                I4,' (ww3_grid.inp)'/)
 3893 !
 3894  1005 FORMAT (/' *** WAVEWATCH III ERROR IN W3GRID : '/               &
 3895                '     BOTTOM AND OBSTRUCTION DATA FROM SAME FILE '/    &
 3896                '     BUT WITH INCOMPATIBLE FORMATS (',I1,',',I1,')'/)
 3897 !
 3898  1006 FORMAT (/' *** WAVEWATCH III ERROR IN W3GRID :'/                &
 3899                '     TOO MANY NESTING OUTPUT FILES '/)
 3900 !
 3901  1007 FORMAT (/' *** WAVEWATCH-III ERROR IN W3GRID :'/                &
 3902                '     ILLEGAL GRID TYPE:',A4)
 3903 !
 3904  1008 FORMAT (/' *** WAVEWATCH-III ERROR IN W3GRID :'/                &
 3905                '     A CARTESIAN WITH CLOSURE IS NOT ALLOWED')
 
 
                                                         ww3_grid.F90  page  72
 
 
 3906 !
 3907  1009 FORMAT (/' *** WAVEWATCH-III ERROR IN W3GRID :'/                &
 3908                '     A RECTILINEAR TRIPOLE GRID IS NOT ALLOWED')
 3909 !
 3910  1010 FORMAT (/' *** WAVEWATCH-III ERROR IN W3GRID :'//               &
 3911                '     NO PROPAGATION + NO SOURCE TERMS = NO WAVE MODEL'// &
 3912                '     ( USE DRY RUN FLAG TO TEMPORARILY SWITCH OFF ',  &
 3913                'CALCULATIONS )'/)
 3914 !
 3915  1011 FORMAT (/' *** WAVEWATCH-III WARNING IN W3GRID :'/              &
 3916                '     LEFT-HANDED GRID -- POSSIBLE CAUSE IS WRONG '/   &
 3917                '     IDLA:',I4,' . THIS MAY PRODUCE ERRORS '/         &
 3918                '     (COMMENT THIS EXTCDE AT YOUR OWN RISK).')
 3919 !
 3920  1012 FORMAT (/' *** WAVEWATCH-III ERROR IN W3GRID :'/                &
 3921                '     ILLEGAL GRID CLOSURE TYPE:',A4)
 3922 !
 3923  1013 FORMAT (/' *** WAVEWATCH-III WARNING IN W3GRID :'/              &
 3924                '     THE GLOBAL (LOGICAL) INPUT FLAG IS DEPRECATED'/  &
 3925                '     AND REPLACED WITH A STRING INDICATING THE TYPE'/ &
 3926                '     OF GRID INDEX CLOSURE (NONE, SMPL or TRPL).'/    &
 3927                ' *** PLEASE UPDATE YOUR GRID INPUT FILE ACCORDINGLY ***'/)
 3928 !
 3929  1014 FORMAT (/' *** WAVEWATCH-III ERROR IN W3GRID :'/                &
 3930                '   SMC CELL LONGITUDE RANGE OUTSIDE BASE GRID RANGE:'/&
 3931                '   ISEA =', I6, '; IX =', I4, ':', I4,'; NX =', I4/)
 3932 !
 3933  1015 FORMAT (/' *** WAVEWATCH-III ERROR IN W3GRID :'/                &
 3934                '   SMC CELL LATITUDE RANGE OUTSIDE BASE GRID RANGE: '/&
 3935                '   ISEA =', I6, '; IY =', I4, ':', I4,'; NY =', I4/)
 3936 !
 3937  1020 FORMAT (/' *** WAVEWATCH-III ERROR IN W3GRID :'/                &
 3938                '     SOURCE TERMS REQUESTED BUT NOT SELECTED'/)
 3939  1021 FORMAT (/' *** WAVEWATCH III WARNING IN W3GRID :'/              &
 3940                '     SOURCE TERMS SELECTED BUT NOT REQUESTED'/)
 3941  1022 FORMAT (/' *** WAVEWATCH III ERROR IN W3GRID :'/                &
 3942                '     ILLEGAL NUMBER OF !/LNn OR SEED SWITCHES :',I3)
 3943  1023 FORMAT (/' *** WAVEWATCH III ERROR IN W3GRID :'/                &
 3944                '     ILLEGAL NUMBER OF !/STn SWITCHES :',I3)
 3945  1024 FORMAT (/' *** WAVEWATCH III ERROR IN W3GRID :'/                &
 3946                '     ILLEGAL NUMBER OF !/NLn SWITCHES :',I3)
 3947  1025 FORMAT (/' *** WAVEWATCH III ERROR IN W3GRID :'/                &
 3948                '     ILLEGAL NUMBER OF !/BTn SWITCHES :',I3)
 3949  1026 FORMAT (/' *** WAVEWATCH III ERROR IN W3GRID :'/                &
 3950                '     ILLEGAL NUMBER OF !/DBn SWITCHES :',I3)
 3951  1027 FORMAT (/' *** WAVEWATCH III ERROR IN W3GRID :'/                &
 3952                '     ILLEGAL NUMBER OF !/TRn SWITCHES :',I3)
 3953  1028 FORMAT (/' *** WAVEWATCH III ERROR IN W3GRID :'/                &
 3954                '     ILLEGAL NUMBER OF !/BSn SWITCHES :',I3)
 3955  1029 FORMAT (/' *** WAVEWATCH III ERROR IN W3GRID :'/                &
 3956                '     ILLEGAL NUMBER OF !/XXn SWITCHES :',I3)
 3957 !
 3958  1030 FORMAT (/' *** WAVEWATCH III ERROR IN W3GRID :'/                &
 3959                '     PROPAGATION REQUESTED BUT NO SCHEME SELECTED '/)
 3960  1031 FORMAT (/' *** WAVEWATCH III WARNING IN W3GRID :'/              &
 
 
                                                         ww3_grid.F90  page  73
 
 
 3961                '     NO PROPAGATION REQUESTED BUT SCHEME SELECTED '/)
 3962  1032 FORMAT (/' *** WAVEWATCH III ERROR IN W3GRID :'/                &
 3963                '     NO PROPAGATION SCHEME SELECTED ( use !/PR0 ) '/)
 3964  1033 FORMAT (/' *** WAVEWATCH III ERROR IN W3GRID :'/                &
 3965                '     MULTIPLE PROPAGATION SCHEMES SELECTED :',I3/     &
 3966                '     CHECK !/PRn SWITCHES'/)
 3967  1034 FORMAT (/' *** WAVEWATCH III ERROR IN W3GRID :'/                &
 3968                '     ILLEGAL NUMBER OF !/ICn SWITCHES :',I3)
 3969  1035 FORMAT (/' *** WAVEWATCH III WARNING IN W3GRID :'/              &
 3970                '     ONLY FIRST PROPAGATION SCHEME WILL BE USED: ')
 3971  1036 FORMAT (/' *** WAVEWATCH III ERROR IN W3GRID :'/                &
 3972                '     ILLEGAL NUMBER OF !/ISn SWITCHES :',I3)
 3973 !
 3974  1040 FORMAT ( '       Space-time extremes DX      :',F10.2)
 3975  1041 FORMAT ( '       Space-time extremes DX      :',F10.2)
 3976  1042 FORMAT ( '       Space-time extremes DX-Y set to default 1000 m')
 3977  1043 FORMAT ( '       Space-time extremes Dt      :',F8.2)
 3978  1044 FORMAT ( '       Space-time extremes Dt set to default 1200 s')
 3979 !
 3980  1100 FORMAT (/'  Status map, printed in',I6,' part(s) '/             &
 3981                ' -----------------------------------'/)
 3982  1101 FORMAT (2X,180I2)
 3983  1102 FORMAT ( '  Legend : '/                                         &
 3984                ' -----------------------------'/                      &
 3985                '    0 : Land point            '/                      &
 3986                '    1 : Sea point             '/                      &
 3987                '    2 : Active boundary point '/                      &
 3988                '    3 : Excluded point        '/)
 3989  1103 FORMAT (/'  Obstruction map ',A1,', printed in',I6,' part(s) '/ &
 3990                ' ---------------------------------------------'/)
 3991  1104 FORMAT ( '  Legend : '/                                         &
 3992                ' --------------------------------'/                   &
 3993                '    fraction of obstruction * 10 '/)
 3994                                                     
 3995  1105 FORMAT (/'  Shoreline slope, printed in',I6,' part(s) '/ &
 3996                ' ---------------------------------------------'/)
 3997  1106 FORMAT ( '  Legend : '/                                         &
 3998                ' --------------------------------'/                   &
 3999                '   Slope * 100'/)
 4000                                  
 4001                                  
 4002  1150 FORMAT (/'  Reading unstructured grid definition files ...'/)
 4003 !
 4004  9997 FORMAT (/'  Summary grid statistics : '/                        &
 4005                ' --------------------------------------------------'/ &
 4006                '       Number of longitudes      :',I10/              &
 4007                '       Number of latitudes       :',I10/              &
 4008                '       Number of grid points     :',I10/              &
 4009                '       Number of sea points      :',I10,' (',F4.1,'%)'/&
 4010                '       Number of input b. points :',I10/              &
 4011                '       Number of land points     :',I10/              &
 4012                '       Number of excluded points :',I10/)
 4013  9998 FORMAT (/'  Summary grid statistics : '/                        &
 4014                ' --------------------------------------------------'/ &
 4015                '       Number of longitudes      :',I10/              &
 
 
                                                         ww3_grid.F90  page  74
 
 
 4016                '       Number of latitudes       :',I10/              &
 4017                '       Number of grid points     :',I10/              &
 4018                '       Number of sea points      :',I10,' (100%)'/    &
 4019                '       Number of input b. points :',I10/              &
 4020                '       Number of land points     :',I10/              &
 4021                '       Number of excluded points :',I10/)
 4022  9999 FORMAT (/'  End of program '/                                   &
 4023                ' ========================================'/           &
 4024                '         WAVEWATCH III Grid preprocessor '/)
 4025 !
 4026 !/
 4027 !/ Internal function READNL ------------------------------------------ /
 4028 !/
 4029       CONTAINS
 4030 !/ ------------------------------------------------------------------- /
 4031       SUBROUTINE READNL ( NDS, NAME, STATUS )
 4032 !/
 4033 !/                  +-----------------------------------+
 4034 !/                  | WAVEWATCH III           NOAA/NCEP |
 4035 !/                  |           H. L. Tolman            |
 4036 !/                  |                        FORTRAN 90 |
 4037 !/                  | Last update :         01-Jun-2013 |
 4038 !/                  +-----------------------------------+
 4039 !/
 4040 !  1. Purpose :
 4041 !
 4042 !     Read namelist info from file if namelist is found in file.
 4043 !
 4044 !  2. Method :
 4045 !
 4046 !     Look for namelist with name NAME in unit NDS and read if found.
 4047 !
 4048 !  3. Parameters :
 4049 !
 4050 !     Parameter list
 4051 !     ----------------------------------------------------------------
 4052 !       NDS     Int.   I   Data set number used for search.
 4053 !       NAME    C*4    I   Name of namelist.
 4054 !       STATUS  C*20   O   Status at end of routine,
 4055 !                            '(default values)  ' if no namelist found.
 4056 !                            '(user def. values)' if namelist read.
 4057 !     ----------------------------------------------------------------
 4058 !
 4059 !  4. Subroutines used :
 4060 !
 4061 !      Name      Type  Module   Description
 4062 !     ----------------------------------------------------------------
 4063 !      EXTCDE    Subr. W3SERVMD Abort program as graceful as possible.
 4064 !     ----------------------------------------------------------------
 4065 !
 4066 !  5. Called by :
 4067 !
 4068 !     Program in which it is contained.
 4069 !
 4070 !  6. Error messages :
 
 
                                                         ww3_grid.F90  page  75
 
 
 4071 !
 4072 !  7. Remarks :
 4073 !
 4074 !  8. Structure :
 4075 !
 4076 !  9. Switches :
 4077 !
 4078 ! 10. Source code :
 4079 !
 4080 !/ ------------------------------------------------------------------- /
 4081 !/ Parameter list
 4082 !/
 4083       INTEGER, INTENT(IN)     :: NDS
 4084       CHARACTER, INTENT(IN)   :: NAME*4
 4085       CHARACTER, INTENT(OUT)  :: STATUS*20
 4086 !/
 4087 !/ ------------------------------------------------------------------- /
 4088 !/ Local parameters
 4089 !/
 4090       INTEGER                 :: IERR, I, J
 4091       CHARACTER               :: LINE*80
 4092 !/
 4093 !/ ------------------------------------------------------------------- /
 4094 !/
 4095 !
 4096       REWIND (NDS)
 4097       STATUS  = '(default values) :  '
 4098 !
 4099       DO
 4100         READ (NDS,'(A)',END=800,ERR=800,IOSTAT=IERR) LINE
 4101         DO I=1, 70
 4102           IF ( LINE(I:I) .NE. ' ' ) THEN
 4103               IF ( LINE(I:I) .EQ. '&' ) THEN
 4104                   IF ( LINE(I+1:I+4) .EQ. NAME ) THEN
 4105                       BACKSPACE (NDS)
 4106                       SELECT CASE(NAME)
 4107                         CASE('SLN1')
 4108                           READ (NDS,NML=SLN1,END=801,ERR=802,IOSTAT=J)
 4109                         CASE('SIN4')
 4110                           READ (NDS,NML=SIN4,END=801,ERR=802,IOSTAT=J)
 4111                         CASE('SNL1')
 4112                           READ (NDS,NML=SNL1,END=801,ERR=802,IOSTAT=J)
 4113                         CASE('SDS4')
 4114                           READ (NDS,NML=SDS4,END=801,ERR=802,IOSTAT=J)
 4115                         CASE('PRO3')
 4116                           READ (NDS,NML=PRO3,END=801,ERR=802,IOSTAT=J)
 4117                        CASE('REF1')
 4118                          READ (NDS,NML=REF1,END=801,ERR=802,IOSTAT=J)
 4119                         CASE('SIG1')
 4120                          READ (NDS,NML=SIG1,END=801,ERR=802,IOSTAT=J)
 4121                         CASE('UNST')
 4122                           READ (NDS,NML=UNST,END=801,ERR=802,IOSTAT=J)
 4123                         CASE('OUTS')
 4124                           READ (NDS,NML=OUTS,END=801,ERR=802,IOSTAT=J)
 4125                         CASE('MISC')
 
 
                                                         ww3_grid.F90  page  76
 
 
 4126                           READ (NDS,NML=MISC,END=801,ERR=802,IOSTAT=J)
 4127                         CASE DEFAULT
 4128                           GOTO 803
 4129                         END SELECT
 4130                       STATUS  = '(user def. values) :'
 4131                       RETURN
 4132                     END IF
 4133                 ELSE
 4134                   EXIT
 4135                 END IF
 4136             ENDIF
 4137           END DO
 4138         END DO
 4139 !
 4140   800 CONTINUE
 4141       RETURN
 4142 !
 4143   801 CONTINUE
 4144       WRITE (NDSE,1001) NAME
 4145       CALL EXTCDE(1)
 4146       RETURN
 4147 !
 4148   802 CONTINUE
 4149       WRITE (NDSE,1002) NAME, J
 4150       CALL EXTCDE(2)
 4151       RETURN
 4152 !
 4153   803 CONTINUE
 4154       WRITE (NDSE,1003) NAME
 4155       CALL EXTCDE(3)
 4156       RETURN
 4157 !
 4158 ! Formats
 4159 !
 4160  1001 FORMAT (/' *** WAVEWATCH III ERROR IN READNL : '/          &
 4161                '     PREMATURE END OF FILE IN READING ',A/)
 4162  1002 FORMAT (/' *** WAVEWATCH III ERROR IN READNL : '/          &
 4163                '     ERROR IN READING ',A,'  IOSTAT =',I8/)
 4164  1003 FORMAT (/' *** WAVEWATCH III ERROR IN READNL : '/          &
 4165                '     NAMELIST NAME ',A,' NOT RECOGNIZED'/)
 4166 !/
 4167 !/ End of READNL ----------------------------------------------------- /
 4168 !/
 4169       END SUBROUTINE
 4170 !/
 4171 !/ End of W3GRID ----------------------------------------------------- /
 4172 !/
 4173       END PROGRAM W3GRID
------------
ftn -c -module /home/luciano.pezzi/COAWST.V3.7/WW3/model/mod -g -i4 -r4 -Kieee -byteswapio -O3  -O3 -I/home/luciano.pezzi/COAWST.V3.7/WW3/model/mod_MPI -I/home/luciano.pezzi/COAWST.V3.7/Lib/MCT/pgi/include -I/home/luciano.pezzi/COAWST.V3.7//WRF/main -I/home/luciano.pezzi/COAWST.V3.7//WRF/external/esmf_time_f90 -I/home/luciano.pezzi/COAWST.V3.7//WRF/frame -I/home/luciano.pezzi/COAWST.V3.7//WRF/share -I/home/luciano.pezzi/COAWST.V3.7/Lib/MCT/pgi/include -I/home/luciano.pezzi/COAWST.V3.7/Build -I/home/luciano.pezzi/COAWST.V3.7/WW3/model/ftn  
------------
------------
------------
